*SPEF "ieee 1481-1999"
*DESIGN "gcd"
*DATE "12:26:34 Friday February 20, 2026"
*VENDOR "The OpenROAD Project"
*PROGRAM "OpenROAD"
*VERSION "v2.0-28075-g0f99689f45"
*DESIGN_FLOW "NAME_SCOPE LOCAL" "PIN_CAP NONE"
*DIVIDER /
*DELIMITER :
*BUS_DELIMITER []
*T_UNIT 1 NS
*C_UNIT 1 PF
*R_UNIT 1 OHM
*L_UNIT 1 HENRY

*NAME_MAP
*1 _000_
*2 _001_
*3 _002_
*4 req_msg[15]
*5 _004_
*6 _005_
*7 _006_
*8 _007_
*9 _008_
*10 _009_
*11 _010_
*12 _011_
*13 _012_
*14 _013_
*15 _014_
*16 _015_
*17 _016_
*18 _017_
*19 _018_
*20 _019_
*21 _020_
*22 _021_
*23 _022_
*24 _023_
*25 _024_
*26 _025_
*27 _026_
*28 _027_
*29 _028_
*30 _029_
*31 _030_
*32 _031_
*33 _032_
*34 _033_
*35 _034_
*36 _035_
*37 _036_
*38 _037_
*39 _038_
*40 _039_
*41 _040_
*42 _041_
*43 _042_
*44 _043_
*45 _044_
*46 _045_
*47 _046_
*48 _047_
*49 _048_
*50 _049_
*51 _050_
*52 _051_
*53 _052_
*54 _053_
*55 _054_
*56 _055_
*57 _056_
*58 _057_
*59 _058_
*60 _059_
*61 _060_
*62 _061_
*63 _062_
*64 _063_
*65 _064_
*66 _065_
*67 _066_
*68 _067_
*69 _068_
*70 _069_
*71 _070_
*72 _071_
*73 _072_
*74 _073_
*75 _074_
*76 _075_
*77 _076_
*78 _077_
*79 _078_
*80 _079_
*81 _080_
*82 _081_
*83 _082_
*84 _083_
*85 _084_
*86 _085_
*87 _086_
*88 _087_
*89 _088_
*90 _089_
*91 _090_
*92 _091_
*93 _092_
*94 _093_
*95 _094_
*96 _095_
*97 _096_
*98 _097_
*99 _098_
*100 _099_
*101 _100_
*102 req_msg[14]
*103 req_msg[13]
*104 _103_
*105 req_msg[12]
*106 _105_
*107 _106_
*108 _107_
*109 _108_
*110 _109_
*111 req_msg[11]
*112 req_msg[10]
*113 _112_
*114 _113_
*115 _114_
*116 _115_
*117 _116_
*118 _117_
*119 _118_
*120 _119_
*121 _120_
*122 _121_
*123 _122_
*124 _123_
*125 _124_
*126 _125_
*127 _126_
*128 _127_
*129 _128_
*130 _129_
*131 _130_
*132 _131_
*133 _132_
*134 _133_
*135 _134_
*136 _135_
*137 _136_
*138 _137_
*139 _138_
*140 _139_
*141 _140_
*142 _141_
*143 _142_
*144 _143_
*145 _144_
*146 req_msg[0]
*147 _146_
*148 _147_
*149 _148_
*150 _149_
*151 _150_
*152 _151_
*153 _152_
*154 _153_
*155 _154_
*156 _155_
*157 clk
*158 ctrl\$a_reg_en\[0\]
*159 ctrl\$b_reg_en\[0\]
*160 ctrl\.state\.out\[1\]
*161 ctrl\.state\.out\[2\]
*162 dpath\.a_lt_b\$in0\[0\]
*163 dpath\.a_lt_b\$in0\[10\]
*164 dpath\.a_lt_b\$in0\[11\]
*165 dpath\.a_lt_b\$in0\[12\]
*166 dpath\.a_lt_b\$in0\[13\]
*167 dpath\.a_lt_b\$in0\[14\]
*168 dpath\.a_lt_b\$in0\[15\]
*169 dpath\.a_lt_b\$in0\[1\]
*170 dpath\.a_lt_b\$in0\[2\]
*171 dpath\.a_lt_b\$in0\[3\]
*172 dpath\.a_lt_b\$in0\[4\]
*173 dpath\.a_lt_b\$in0\[5\]
*174 dpath\.a_lt_b\$in0\[6\]
*175 dpath\.a_lt_b\$in0\[7\]
*176 dpath\.a_lt_b\$in0\[8\]
*177 dpath\.a_lt_b\$in0\[9\]
*178 dpath\.a_lt_b\$in1\[0\]
*179 dpath\.a_lt_b\$in1\[10\]
*180 dpath\.a_lt_b\$in1\[11\]
*181 dpath\.a_lt_b\$in1\[12\]
*182 dpath\.a_lt_b\$in1\[13\]
*183 dpath\.a_lt_b\$in1\[14\]
*184 dpath\.a_lt_b\$in1\[15\]
*185 dpath\.a_lt_b\$in1\[1\]
*186 dpath\.a_lt_b\$in1\[2\]
*187 dpath\.a_lt_b\$in1\[3\]
*188 dpath\.a_lt_b\$in1\[4\]
*189 dpath\.a_lt_b\$in1\[5\]
*190 dpath\.a_lt_b\$in1\[6\]
*191 dpath\.a_lt_b\$in1\[7\]
*192 dpath\.a_lt_b\$in1\[8\]
*193 dpath\.a_lt_b\$in1\[9\]
*194 dpath\.a_mux\$out\[0\]
*195 dpath\.a_mux\$out\[10\]
*196 dpath\.a_mux\$out\[11\]
*197 dpath\.a_mux\$out\[12\]
*198 dpath\.a_mux\$out\[13\]
*199 dpath\.a_mux\$out\[14\]
*200 dpath\.a_mux\$out\[15\]
*201 dpath\.a_mux\$out\[1\]
*202 dpath\.a_mux\$out\[2\]
*203 dpath\.a_mux\$out\[3\]
*204 dpath\.a_mux\$out\[4\]
*205 dpath\.a_mux\$out\[5\]
*206 dpath\.a_mux\$out\[6\]
*207 dpath\.a_mux\$out\[7\]
*208 dpath\.a_mux\$out\[8\]
*209 dpath\.a_mux\$out\[9\]
*210 dpath\.b_mux\$out\[0\]
*211 dpath\.b_mux\$out\[10\]
*212 dpath\.b_mux\$out\[11\]
*213 dpath\.b_mux\$out\[12\]
*214 dpath\.b_mux\$out\[13\]
*215 dpath\.b_mux\$out\[14\]
*216 dpath\.b_mux\$out\[15\]
*217 dpath\.b_mux\$out\[1\]
*218 dpath\.b_mux\$out\[2\]
*219 dpath\.b_mux\$out\[3\]
*220 dpath\.b_mux\$out\[4\]
*221 dpath\.b_mux\$out\[5\]
*222 dpath\.b_mux\$out\[6\]
*223 dpath\.b_mux\$out\[7\]
*224 dpath\.b_mux\$out\[8\]
*225 dpath\.b_mux\$out\[9\]
*226 net1
*227 net2
*228 net3
*229 net4
*230 net5
*231 net6
*232 net7
*233 net8
*234 net9
*235 net10
*236 net11
*237 net12
*238 net13
*239 net14
*240 net15
*241 net16
*242 net17
*243 net18
*244 net19
*245 net20
*246 net21
*247 net22
*248 net23
*249 net24
*250 net25
*251 net26
*252 net27
*253 net28
*254 net29
*255 net30
*256 net31
*257 net32
*258 net36
*259 net33
*260 net34
*261 net37
*262 net38
*263 net39
*264 net40
*265 net41
*266 net42
*267 net43
*268 net44
*269 net45
*270 net46
*271 net47
*272 net48
*273 net49
*274 net50
*275 net51
*276 net52
*277 net35
*278 net53
*281 req_msg[16]
*282 req_msg[17]
*283 req_msg[18]
*284 req_msg[19]
*285 req_msg[1]
*286 req_msg[20]
*287 req_msg[21]
*288 req_msg[22]
*289 req_msg[23]
*290 req_msg[24]
*291 req_msg[25]
*292 req_msg[26]
*293 req_msg[27]
*294 req_msg[28]
*295 req_msg[29]
*296 req_msg[2]
*297 req_msg[30]
*298 req_msg[31]
*299 req_msg[3]
*300 req_msg[4]
*301 req_msg[5]
*302 req_msg[6]
*303 req_msg[7]
*304 req_msg[8]
*305 req_msg[9]
*306 req_val
*307 reset
*308 resp_rdy
*309 req_rdy
*310 resp_msg[0]
*311 resp_msg[10]
*312 resp_msg[11]
*313 resp_msg[12]
*314 resp_msg[13]
*315 resp_msg[14]
*316 resp_msg[15]
*317 resp_msg[1]
*318 resp_msg[2]
*319 resp_msg[3]
*320 resp_msg[4]
*321 resp_msg[5]
*322 resp_msg[6]
*323 resp_msg[7]
*324 resp_msg[8]
*325 resp_msg[9]
*326 resp_val
*327 net157
*328 net153
*329 net130
*330 net127
*331 net128
*332 net129
*333 net131
*334 net132
*335 net151
*336 net133
*337 net134
*338 net135
*339 net366
*340 net150
*341 net137
*342 net138
*343 net144
*344 net142
*345 net140
*346 net139
*347 net141
*348 net143
*349 net147
*350 net145
*351 net146
*352 net148
*353 net149
*354 net152
*355 net154
*356 net155
*357 net156
*358 net368
*359 net160
*360 net161
*361 net330
*362 net166
*363 net167
*364 net168
*365 net169
*366 net170
*367 net171
*368 net172
*369 net287
*370 net175
*371 net176
*372 net178
*373 net190
*374 net180
*375 net181
*376 net182
*378 net184
*379 net185
*380 net186
*381 net187
*382 net188
*383 net189
*384 net191
*385 net192
*386 net193
*387 net194
*388 net195
*389 net196
*390 net198
*391 clknet_2_0__leaf_clk
*392 net199
*393 clknet_2_2__leaf_clk
*394 clknet_2_1__leaf_clk
*395 clknet_0_clk
*396 net123
*397 net124
*398 net125
*399 net126
*400 net158
*402 net164
*403 net165
*404 net173
*406 net179
*407 net197
*408 clknet_2_3__leaf_clk
*409 net200
*410 net201
*411 net202
*412 net203
*413 net204
*414 net339
*415 net206
*416 net207
*418 net344
*419 net212
*420 net214
*421 net215
*422 net216
*423 net245
*424 net248
*426 net288
*427 net289
*428 net290
*429 net292
*430 net331
*431 net332
*432 net337
*433 net338
*434 net341
*435 net342
*436 net345
*437 input7
*438 _157_
*439 _158_
*440 _159_
*441 _160_
*442 _161_
*443 _162_
*444 _163_
*445 _164_
*446 _165_
*447 _166_
*448 _167_
*449 _168_
*450 _169_
*451 _170_
*452 _171_
*453 _172_
*454 _173_
*455 _174_
*456 _175_
*457 _176_
*458 _177_
*459 _178_
*460 _179_
*461 _180_
*462 _181_
*463 _182_
*464 _183_
*465 _184_
*466 _185_
*467 _186_
*468 _187_
*469 _188_
*470 _189_
*471 _190_
*472 _191_
*473 _192_
*474 _193_
*475 _194_
*476 _195_
*477 _196_
*478 _197_
*479 _198_
*480 _199_
*481 _200_
*482 _201_
*483 _202_
*484 _203_
*485 _204_
*486 _205_
*487 _206_
*488 _207_
*489 _208_
*490 _209_
*491 _210_
*492 _211_
*493 _212_
*494 _213_
*495 _214_
*496 _215_
*497 _216_
*498 _217_
*499 _218_
*500 _219_
*501 _220_
*502 _221_
*503 _222_
*504 _223_
*505 _224_
*506 _225_
*507 _226_
*508 _227_
*509 _228_
*510 _229_
*511 _230_
*512 _231_
*513 _232_
*514 _233_
*515 _234_
*516 _235_
*517 _236_
*518 _237_
*519 _238_
*520 _239_
*521 _240_
*522 _241_
*523 _242_
*524 _243_
*525 _244_
*526 _245_
*527 _246_
*528 _247_
*529 _248_
*530 _249_
*531 _250_
*532 _251_
*533 _252_
*534 _253_
*535 _254_
*536 _255_
*537 _256_
*538 _257_
*539 _258_
*540 _259_
*541 _260_
*542 _261_
*543 _262_
*544 _263_
*545 _264_
*546 _265_
*547 _266_
*548 _267_
*549 _268_
*550 _269_
*551 _270_
*552 _271_
*553 _272_
*554 _273_
*555 _274_
*556 input6
*557 input5
*558 _277_
*559 _278_
*560 input4
*561 _280_
*562 _281_
*563 _282_
*564 _283_
*565 _284_
*566 _285_
*567 input3
*568 input2
*569 _288_
*570 _289_
*571 _290_
*572 _291_
*573 _292_
*574 _293_
*575 _294_
*576 _295_
*577 _296_
*578 _297_
*579 _298_
*580 _299_
*581 _300_
*582 _301_
*583 _302_
*584 _303_
*585 _304_
*586 _305_
*587 _306_
*588 _307_
*589 _308_
*590 _309_
*591 _310_
*592 _311_
*593 _312_
*594 _313_
*595 _314_
*596 _315_
*597 _316_
*598 _317_
*599 _318_
*600 _319_
*601 _320_
*602 _321_
*603 _322_
*604 _323_
*605 _324_
*606 _325_
*607 _326_
*608 _327_
*609 _328_
*610 _329_
*611 _330_
*612 _331_
*613 _332_
*614 _333_
*615 _334_
*616 _335_
*617 input1
*618 _337_
*619 _338_
*620 _339_
*621 _340_
*622 _341_
*623 _342_
*624 _343_
*625 _344_
*626 _345_
*627 _346_
*628 _347_
*629 _348_
*630 _349_
*631 _350_
*632 _351_
*633 _352_
*634 _353_
*635 _354_
*636 _355_
*637 _356_
*638 _357_
*639 _358_
*640 _359_
*641 _360_
*642 _361_
*643 _362_
*644 ctrl\.state\.out\[0\]\$_DFF_P_
*645 ctrl\.state\.out\[1\]\$_DFF_P_
*646 ctrl\.state\.out\[2\]\$_DFF_P_
*647 dpath\.a_reg\.out\[0\]\$_DFFE_PP_
*648 dpath\.a_reg\.out\[10\]\$_DFFE_PP_
*649 dpath\.a_reg\.out\[11\]\$_DFFE_PP_
*650 dpath\.a_reg\.out\[12\]\$_DFFE_PP_
*651 dpath\.a_reg\.out\[13\]\$_DFFE_PP_
*652 dpath\.a_reg\.out\[14\]\$_DFFE_PP_
*653 dpath\.a_reg\.out\[15\]\$_DFFE_PP_
*654 dpath\.a_reg\.out\[1\]\$_DFFE_PP_
*655 dpath\.a_reg\.out\[2\]\$_DFFE_PP_
*656 dpath\.a_reg\.out\[3\]\$_DFFE_PP_
*657 dpath\.a_reg\.out\[4\]\$_DFFE_PP_
*658 dpath\.a_reg\.out\[5\]\$_DFFE_PP_
*659 dpath\.a_reg\.out\[6\]\$_DFFE_PP_
*660 dpath\.a_reg\.out\[7\]\$_DFFE_PP_
*661 dpath\.a_reg\.out\[8\]\$_DFFE_PP_
*662 dpath\.a_reg\.out\[9\]\$_DFFE_PP_
*663 dpath\.b_reg\.out\[0\]\$_DFFE_PP_
*664 dpath\.b_reg\.out\[10\]\$_DFFE_PP_
*665 dpath\.b_reg\.out\[11\]\$_DFFE_PP_
*666 dpath\.b_reg\.out\[12\]\$_DFFE_PP_
*667 dpath\.b_reg\.out\[13\]\$_DFFE_PP_
*668 dpath\.b_reg\.out\[14\]\$_DFFE_PP_
*669 dpath\.b_reg\.out\[15\]\$_DFFE_PP_
*670 dpath\.b_reg\.out\[1\]\$_DFFE_PP_
*671 dpath\.b_reg\.out\[2\]\$_DFFE_PP_
*672 dpath\.b_reg\.out\[3\]\$_DFFE_PP_
*673 dpath\.b_reg\.out\[4\]\$_DFFE_PP_
*674 dpath\.b_reg\.out\[5\]\$_DFFE_PP_
*675 dpath\.b_reg\.out\[6\]\$_DFFE_PP_
*676 dpath\.b_reg\.out\[7\]\$_DFFE_PP_
*677 dpath\.b_reg\.out\[8\]\$_DFFE_PP_
*678 dpath\.b_reg\.out\[9\]\$_DFFE_PP_
*679 TAP_TAPCELL_ROW_0_0
*680 TAP_TAPCELL_ROW_0_1
*681 TAP_TAPCELL_ROW_0_2
*682 TAP_TAPCELL_ROW_0_3
*683 TAP_TAPCELL_ROW_0_4
*684 TAP_TAPCELL_ROW_1_5
*685 TAP_TAPCELL_ROW_1_6
*686 TAP_TAPCELL_ROW_2_7
*687 TAP_TAPCELL_ROW_2_8
*688 TAP_TAPCELL_ROW_2_9
*689 TAP_TAPCELL_ROW_3_10
*690 TAP_TAPCELL_ROW_3_11
*691 TAP_TAPCELL_ROW_4_12
*692 TAP_TAPCELL_ROW_4_13
*693 TAP_TAPCELL_ROW_4_14
*694 TAP_TAPCELL_ROW_5_15
*695 TAP_TAPCELL_ROW_5_16
*696 TAP_TAPCELL_ROW_6_17
*697 TAP_TAPCELL_ROW_6_18
*698 TAP_TAPCELL_ROW_6_19
*699 TAP_TAPCELL_ROW_7_20
*700 TAP_TAPCELL_ROW_7_21
*701 TAP_TAPCELL_ROW_8_22
*702 TAP_TAPCELL_ROW_8_23
*703 TAP_TAPCELL_ROW_8_24
*704 TAP_TAPCELL_ROW_9_25
*705 TAP_TAPCELL_ROW_9_26
*706 TAP_TAPCELL_ROW_10_27
*707 TAP_TAPCELL_ROW_10_28
*708 TAP_TAPCELL_ROW_10_29
*709 TAP_TAPCELL_ROW_11_30
*710 TAP_TAPCELL_ROW_11_31
*711 TAP_TAPCELL_ROW_12_32
*712 TAP_TAPCELL_ROW_12_33
*713 TAP_TAPCELL_ROW_12_34
*714 TAP_TAPCELL_ROW_13_35
*715 TAP_TAPCELL_ROW_13_36
*716 TAP_TAPCELL_ROW_14_37
*717 TAP_TAPCELL_ROW_14_38
*718 TAP_TAPCELL_ROW_14_39
*719 TAP_TAPCELL_ROW_15_40
*720 TAP_TAPCELL_ROW_15_41
*721 TAP_TAPCELL_ROW_16_42
*722 TAP_TAPCELL_ROW_16_43
*723 TAP_TAPCELL_ROW_16_44
*724 TAP_TAPCELL_ROW_17_45
*725 TAP_TAPCELL_ROW_17_46
*726 TAP_TAPCELL_ROW_18_47
*727 TAP_TAPCELL_ROW_18_48
*728 TAP_TAPCELL_ROW_18_49
*729 TAP_TAPCELL_ROW_19_50
*730 TAP_TAPCELL_ROW_19_51
*731 TAP_TAPCELL_ROW_20_52
*732 TAP_TAPCELL_ROW_20_53
*733 TAP_TAPCELL_ROW_20_54
*734 TAP_TAPCELL_ROW_21_55
*735 TAP_TAPCELL_ROW_21_56
*736 TAP_TAPCELL_ROW_22_57
*737 TAP_TAPCELL_ROW_22_58
*738 TAP_TAPCELL_ROW_22_59
*739 TAP_TAPCELL_ROW_23_60
*740 TAP_TAPCELL_ROW_23_61
*741 TAP_TAPCELL_ROW_24_62
*742 TAP_TAPCELL_ROW_24_63
*743 TAP_TAPCELL_ROW_24_64
*744 TAP_TAPCELL_ROW_25_65
*745 TAP_TAPCELL_ROW_25_66
*746 TAP_TAPCELL_ROW_26_67
*747 TAP_TAPCELL_ROW_26_68
*748 TAP_TAPCELL_ROW_26_69
*749 TAP_TAPCELL_ROW_26_70
*750 TAP_TAPCELL_ROW_26_71
*751 input8
*752 input9
*753 input10
*754 input11
*755 input12
*756 input13
*757 input14
*758 input15
*759 input16
*760 input17
*761 input18
*762 input19
*763 input20
*764 input21
*765 input22
*766 input23
*767 input24
*768 input25
*769 input26
*770 input27
*771 input28
*772 input29
*773 input30
*774 input31
*775 input32
*776 input33
*777 input34
*778 input35
*779 output36
*780 output37
*781 output38
*782 output39
*783 output40
*784 output41
*785 output42
*786 output43
*787 output44
*788 output45
*789 output46
*790 output47
*791 output48
*792 output49
*793 output50
*794 output51
*795 output52
*796 output53
*797 place157
*798 place153
*799 place130
*800 place127
*801 place128
*802 place129
*803 place131
*804 place132
*805 place151
*806 place133
*807 place134
*808 place135
*809 rebuffer366
*810 place150
*811 place137
*812 place138
*813 place144
*814 place142
*815 place140
*816 place139
*817 place141
*818 place143
*819 place147
*820 place145
*821 place146
*822 place148
*823 place149
*824 place152
*825 place154
*826 place155
*827 place156
*828 rebuffer368
*829 place160
*830 place161
*831 rebuffer330
*832 place166
*833 place167
*834 place168
*835 place169
*836 place170
*837 place171
*838 place172
*839 rebuffer287
*840 place175
*841 place176
*842 place178
*843 place190
*844 place180
*845 place181
*846 place182
*847 FILLER_0_16
*848 place184
*849 place185
*850 place186
*851 place187
*852 place188
*853 place189
*854 place191
*855 place192
*856 place193
*857 place194
*858 place195
*859 place196
*860 place198
*861 clkbuf_2_0__f_clk
*862 place199
*863 clkbuf_2_2__f_clk
*864 clkbuf_2_1__f_clk
*865 clkbuf_0_clk
*866 place123
*867 place124
*868 place125
*869 place126
*870 place158
*871 FILLER_0_24
*872 place164
*873 place165
*874 place173
*875 FILLER_0_8
*876 place179
*877 place197
*878 clkbuf_2_3__f_clk
*879 clkload0
*880 clkload1
*881 clkload2
*882 rebuffer200
*883 rebuffer201
*884 rebuffer202
*885 rebuffer203
*886 clone204
*887 rebuffer339
*888 rebuffer206
*889 rebuffer207
*890 FILLER_0_28
*891 rebuffer344
*892 rebuffer212
*893 clone214
*894 rebuffer215
*895 rebuffer216
*896 rebuffer245
*897 rebuffer248
*898 FILLER_0_0
*899 clone288
*900 rebuffer289
*901 rebuffer290
*902 rebuffer292
*903 rebuffer331
*904 rebuffer332
*905 rebuffer337
*906 rebuffer338
*907 rebuffer341
*908 rebuffer342
*909 rebuffer345
*910 FILLER_0_31
*911 FILLER_0_33
*912 FILLER_0_54
*913 FILLER_0_61
*914 FILLER_0_69
*915 FILLER_0_86
*916 FILLER_0_107
*917 FILLER_0_111
*918 FILLER_0_121
*919 FILLER_0_129
*920 FILLER_0_131
*921 FILLER_0_147
*922 FILLER_0_149
*923 FILLER_0_151
*924 FILLER_0_159
*925 FILLER_1_0
*926 FILLER_1_8
*927 FILLER_1_16
*928 FILLER_1_71
*929 FILLER_1_80
*930 FILLER_1_110
*931 FILLER_1_114
*932 FILLER_1_116
*933 FILLER_1_125
*934 FILLER_1_133
*935 FILLER_2_0
*936 FILLER_2_4
*937 FILLER_2_31
*938 FILLER_2_69
*939 FILLER_2_80
*940 FILLER_2_82
*941 FILLER_2_105
*942 FILLER_2_109
*943 FILLER_2_115
*944 FILLER_2_117
*945 FILLER_2_129
*946 FILLER_2_151
*947 FILLER_2_159
*948 FILLER_3_0
*949 FILLER_3_8
*950 FILLER_3_36
*951 FILLER_3_59
*952 FILLER_3_82
*953 FILLER_3_90
*954 FILLER_3_121
*955 FILLER_3_158
*956 FILLER_3_166
*957 FILLER_4_31
*958 FILLER_4_33
*959 FILLER_4_37
*960 FILLER_4_86
*961 FILLER_4_91
*962 FILLER_4_113
*963 FILLER_4_143
*964 FILLER_4_149
*965 FILLER_4_165
*966 FILLER_5_8
*967 FILLER_5_13
*968 FILLER_5_18
*969 FILLER_5_43
*970 FILLER_5_80
*971 FILLER_5_84
*972 FILLER_5_86
*973 FILLER_5_108
*974 FILLER_5_118
*975 FILLER_5_121
*976 FILLER_5_154
*977 FILLER_5_163
*978 FILLER_6_0
*979 FILLER_6_8
*980 FILLER_6_12
*981 FILLER_6_14
*982 FILLER_6_19
*983 FILLER_6_85
*984 FILLER_6_89
*985 FILLER_6_141
*986 FILLER_6_149
*987 FILLER_6_154
*988 FILLER_6_162
*989 FILLER_6_166
*990 FILLER_7_0
*991 FILLER_7_8
*992 FILLER_7_12
*993 FILLER_7_37
*994 FILLER_7_41
*995 FILLER_7_43
*996 FILLER_7_57
*997 FILLER_7_59
*998 FILLER_7_61
*999 FILLER_7_63
*1000 FILLER_7_75
*1001 FILLER_7_77
*1002 FILLER_7_151
*1003 FILLER_7_161
*1004 FILLER_7_165
*1005 FILLER_8_8
*1006 FILLER_8_10
*1007 FILLER_8_31
*1008 FILLER_8_62
*1009 FILLER_8_85
*1010 FILLER_8_89
*1011 FILLER_8_104
*1012 FILLER_8_106
*1013 FILLER_8_149
*1014 FILLER_8_151
*1015 FILLER_8_159
*1016 FILLER_9_0
*1017 FILLER_9_2
*1018 FILLER_9_30
*1019 FILLER_9_32
*1020 FILLER_9_41
*1021 FILLER_9_77
*1022 FILLER_9_88
*1023 FILLER_9_118
*1024 FILLER_9_121
*1025 FILLER_9_132
*1026 FILLER_9_139
*1027 FILLER_9_155
*1028 FILLER_9_164
*1029 FILLER_9_166
*1030 FILLER_10_0
*1031 FILLER_10_2
*1032 FILLER_10_11
*1033 FILLER_10_21
*1034 FILLER_10_23
*1035 FILLER_10_73
*1036 FILLER_10_91
*1037 FILLER_10_98
*1038 FILLER_10_100
*1039 FILLER_10_128
*1040 FILLER_10_136
*1041 FILLER_10_140
*1042 FILLER_10_146
*1043 FILLER_10_151
*1044 FILLER_10_159
*1045 FILLER_11_0
*1046 FILLER_11_2
*1047 FILLER_11_7
*1048 FILLER_11_61
*1049 FILLER_11_63
*1050 FILLER_11_69
*1051 FILLER_11_85
*1052 FILLER_11_164
*1053 FILLER_11_166
*1054 FILLER_12_0
*1055 FILLER_12_17
*1056 FILLER_12_24
*1057 FILLER_12_28
*1058 FILLER_12_31
*1059 FILLER_12_51
*1060 FILLER_12_66
*1061 FILLER_12_70
*1062 FILLER_12_87
*1063 FILLER_12_89
*1064 FILLER_12_91
*1065 FILLER_12_124
*1066 FILLER_12_136
*1067 FILLER_12_151
*1068 FILLER_12_155
*1069 FILLER_12_164
*1070 FILLER_12_166
*1071 FILLER_13_0
*1072 FILLER_13_8
*1073 FILLER_13_33
*1074 FILLER_13_41
*1075 FILLER_13_43
*1076 FILLER_13_61
*1077 FILLER_13_93
*1078 FILLER_13_166
*1079 FILLER_14_8
*1080 FILLER_14_12
*1081 FILLER_14_14
*1082 FILLER_14_19
*1083 FILLER_14_26
*1084 FILLER_14_31
*1085 FILLER_14_83
*1086 FILLER_14_103
*1087 FILLER_14_135
*1088 FILLER_14_149
*1089 FILLER_14_156
*1090 FILLER_14_164
*1091 FILLER_14_166
*1092 FILLER_15_0
*1093 FILLER_15_2
*1094 FILLER_15_11
*1095 FILLER_15_40
*1096 FILLER_15_54
*1097 FILLER_15_61
*1098 FILLER_15_80
*1099 FILLER_15_86
*1100 FILLER_15_121
*1101 FILLER_15_161
*1102 FILLER_15_165
*1103 FILLER_16_0
*1104 FILLER_16_9
*1105 FILLER_16_14
*1106 FILLER_16_31
*1107 FILLER_16_72
*1108 FILLER_16_113
*1109 FILLER_16_164
*1110 FILLER_16_166
*1111 FILLER_17_0
*1112 FILLER_17_2
*1113 FILLER_17_7
*1114 FILLER_17_17
*1115 FILLER_17_25
*1116 FILLER_17_45
*1117 FILLER_17_58
*1118 FILLER_17_74
*1119 FILLER_17_121
*1120 FILLER_18_8
*1121 FILLER_18_12
*1122 FILLER_18_22
*1123 FILLER_18_69
*1124 FILLER_18_88
*1125 FILLER_18_97
*1126 FILLER_18_135
*1127 FILLER_18_142
*1128 FILLER_18_151
*1129 FILLER_18_155
*1130 FILLER_18_160
*1131 FILLER_18_164
*1132 FILLER_18_166
*1133 FILLER_19_4
*1134 FILLER_19_61
*1135 FILLER_19_79
*1136 FILLER_19_96
*1137 FILLER_19_98
*1138 FILLER_19_111
*1139 FILLER_19_136
*1140 FILLER_19_140
*1141 FILLER_19_158
*1142 FILLER_19_163
*1143 FILLER_20_0
*1144 FILLER_20_4
*1145 FILLER_20_13
*1146 FILLER_20_17
*1147 FILLER_20_25
*1148 FILLER_20_29
*1149 FILLER_20_56
*1150 FILLER_20_79
*1151 FILLER_20_85
*1152 FILLER_20_163
*1153 FILLER_21_0
*1154 FILLER_21_2
*1155 FILLER_21_11
*1156 FILLER_21_19
*1157 FILLER_21_21
*1158 FILLER_21_36
*1159 FILLER_21_50
*1160 FILLER_21_61
*1161 FILLER_21_73
*1162 FILLER_21_80
*1163 FILLER_21_82
*1164 FILLER_21_91
*1165 FILLER_21_119
*1166 FILLER_21_127
*1167 FILLER_21_159
*1168 FILLER_22_0
*1169 FILLER_22_4
*1170 FILLER_22_87
*1171 FILLER_22_89
*1172 FILLER_22_116
*1173 FILLER_22_141
*1174 FILLER_22_149
*1175 FILLER_22_159
*1176 FILLER_23_0
*1177 FILLER_23_8
*1178 FILLER_23_10
*1179 FILLER_23_14
*1180 FILLER_23_20
*1181 FILLER_23_30
*1182 FILLER_23_34
*1183 FILLER_23_40
*1184 FILLER_23_54
*1185 FILLER_23_67
*1186 FILLER_23_104
*1187 FILLER_23_119
*1188 FILLER_23_130
*1189 FILLER_23_161
*1190 FILLER_23_165
*1191 FILLER_24_0
*1192 FILLER_24_8
*1193 FILLER_24_16
*1194 FILLER_24_24
*1195 FILLER_24_28
*1196 FILLER_24_31
*1197 FILLER_24_69
*1198 FILLER_24_77
*1199 FILLER_24_86
*1200 FILLER_24_122
*1201 FILLER_24_129
*1202 FILLER_24_138
*1203 FILLER_24_146
*1204 FILLER_24_151
*1205 FILLER_24_159
*1206 FILLER_25_0
*1207 FILLER_25_8
*1208 FILLER_25_36
*1209 FILLER_25_44
*1210 FILLER_25_65
*1211 FILLER_25_77
*1212 FILLER_25_87
*1213 FILLER_25_93
*1214 FILLER_25_104
*1215 FILLER_25_112
*1216 FILLER_25_145
*1217 FILLER_25_153
*1218 FILLER_25_161
*1219 FILLER_25_165
*1220 FILLER_26_0
*1221 FILLER_26_8
*1222 FILLER_26_16
*1223 FILLER_26_24
*1224 FILLER_26_28
*1225 FILLER_26_31
*1226 FILLER_26_39
*1227 FILLER_26_47
*1228 FILLER_26_55
*1229 FILLER_26_59
*1230 FILLER_26_61
*1231 FILLER_26_69
*1232 FILLER_26_77
*1233 FILLER_26_81
*1234 FILLER_26_91
*1235 FILLER_26_99
*1236 FILLER_26_107
*1237 FILLER_26_111
*1238 FILLER_26_121
*1239 FILLER_26_127
*1240 FILLER_26_135
*1241 FILLER_26_143
*1242 FILLER_26_147
*1243 FILLER_26_149
*1244 FILLER_26_151
*1245 FILLER_26_159

*PORTS
clk I
req_msg[0] I
req_msg[10] I
req_msg[11] I
req_msg[12] I
req_msg[13] I
req_msg[14] I
req_msg[15] I
req_msg[16] I
req_msg[17] I
req_msg[18] I
req_msg[19] I
req_msg[1] I
req_msg[20] I
req_msg[21] I
req_msg[22] I
req_msg[23] I
req_msg[24] I
req_msg[25] I
req_msg[26] I
req_msg[27] I
req_msg[28] I
req_msg[29] I
req_msg[2] I
req_msg[30] I
req_msg[31] I
req_msg[3] I
req_msg[4] I
req_msg[5] I
req_msg[6] I
req_msg[7] I
req_msg[8] I
req_msg[9] I
req_rdy O
req_val I
reset I
resp_msg[0] O
resp_msg[10] O
resp_msg[11] O
resp_msg[12] O
resp_msg[13] O
resp_msg[14] O
resp_msg[15] O
resp_msg[1] O
resp_msg[2] O
resp_msg[3] O
resp_msg[4] O
resp_msg[5] O
resp_msg[6] O
resp_msg[7] O
resp_msg[8] O
resp_msg[9] O
resp_rdy I
resp_val O

*D_NET *1 0.000526004
*CONN
*I *644:D I *D sky130_fd_sc_hd__dfxtp_2
*I *449:X O *D sky130_fd_sc_hd__a221o_1
*CAP
1 *644:D 0.000179774
2 *449:X 0.000179774
3 *644:D *644:CLK 0.000127179
4 *644:D *278:10 2.65831e-05
5 *644:D *426:82 1.2693e-05
*RES
1 *449:X *644:D 32.0416 
*END

*D_NET *2 0.00143437
*CONN
*I *645:D I *D sky130_fd_sc_hd__dfxtp_1
*I *453:Y O *D sky130_fd_sc_hd__a21oi_2
*CAP
1 *645:D 0.000347021
2 *453:Y 0.000347021
3 *645:D *445:A 8.92089e-05
4 *645:D *453:A2 3.79256e-05
5 *645:D *633:B1 7.02539e-05
6 *645:D *13:16 0
7 *645:D *391:46 0.000542934
*RES
1 *453:Y *645:D 37.315 
*END

*D_NET *3 0.000429884
*CONN
*I *646:D I *D sky130_fd_sc_hd__dfxtp_2
*I *444:Y O *D sky130_fd_sc_hd__nor2_1
*CAP
1 *646:D 0.000107992
2 *444:Y 0.000107992
3 *646:D *444:A 9.39577e-05
4 *646:D *444:B 5.39608e-05
5 *646:D *453:B1 2.95757e-05
6 *646:D *13:16 5.67307e-06
7 *646:D *278:10 1.19721e-05
8 *646:D *390:8 1.87611e-05
*RES
1 *444:Y *646:D 30.692 
*END

*D_NET *4 0.00158909
*CONN
*P req_msg[15] I
*I *437:A I *D sky130_fd_sc_hd__clkdlybuf4s50_1
*CAP
1 req_msg[15] 0.000606644
2 *437:A 0.000606644
3 *437:A *629:A1 0.000162529
4 *437:A *768:A 6.62201e-05
5 *437:A *773:A 0.000147056
6 *437:A *159:149 0
*RES
1 req_msg[15] *437:A 29.816 
*END

*D_NET *5 0.00419611
*CONN
*I *442:B I *D sky130_fd_sc_hd__nand4_1
*I *438:Y O *D sky130_fd_sc_hd__nor4_4
*CAP
1 *442:B 0
2 *438:Y 0.0013359
3 *5:14 0.0013359
4 *5:14 *438:A 4.38909e-05
5 *5:14 *442:A 0.000107463
6 *5:14 *562:A1 0.000164843
7 *5:14 *647:D 7.26606e-05
8 *5:14 *831:A 0.000208621
9 *5:14 *893:A2 0.000275098
10 *5:14 *43:8 0.00036617
11 *5:14 *359:97 3.86207e-06
12 *5:14 *388:73 0.0002817
*RES
1 *438:Y *5:14 43.7037 
2 *5:14 *442:B 9.24915 
*END

*D_NET *6 0.00334084
*CONN
*I *442:C I *D sky130_fd_sc_hd__nand4_1
*I *439:Y O *D sky130_fd_sc_hd__nor4_4
*CAP
1 *442:C 0
2 *439:Y 0.000922815
3 *6:14 0.000922815
4 *6:14 *439:A 1.41976e-05
5 *6:14 *439:C 7.92757e-06
6 *6:14 *442:A 2.58616e-05
7 *6:14 *455:A 0
8 *6:14 *464:A 0
9 *6:14 *464:B_N 6.71485e-05
10 *6:14 *468:A1 5.27799e-05
11 *6:14 *559:A 1.05272e-06
12 *6:14 *593:A1 1.64154e-05
13 *6:14 *9:10 4.29314e-06
14 *6:14 *106:8 0
15 *6:14 *388:73 0.000224381
16 *6:14 *398:8 0.000970374
17 *6:14 *404:19 0.000110776
*RES
1 *439:Y *6:14 46.0306 
2 *6:14 *442:C 9.24915 
*END

*D_NET *7 0.00613805
*CONN
*I *442:A I *D sky130_fd_sc_hd__nand4_1
*I *440:Y O *D sky130_fd_sc_hd__nor4_4
*CAP
1 *442:A 0.000817006
2 *440:Y 0.00173394
3 *7:16 0.00255094
4 *442:A *491:A_N 1.95963e-05
5 *442:A *491:B 7.24901e-05
6 *442:A *559:B_N 3.00829e-05
7 *442:A *562:A1 1.9898e-05
8 *442:A *819:A 2.58616e-05
9 *442:A *893:A2 6.96203e-05
10 *442:A *45:10 6.46815e-05
11 *442:A *349:10 6.27718e-05
12 *442:A *388:73 7.67734e-06
13 *7:16 resp_msg[7] 0
14 *7:16 *564:A 2.84758e-05
15 *7:16 *589:A2 7.06567e-05
16 *7:16 *653:D 0
17 *7:16 *653:DE 0
18 *7:16 *660:D 1.33938e-05
19 *7:16 *660:DE 4.62801e-05
20 *7:16 *660:CLK 1.43832e-05
21 *7:16 *793:A 2.47791e-05
22 *7:16 *840:A 0
23 *7:16 *94:12 0
24 *7:16 *168:14 4.70005e-05
25 *7:16 *175:22 8.41713e-05
26 *7:16 *250:18 0.000189701
27 *7:16 *349:59 9.80242e-07
28 *7:16 *393:103 1.03403e-05
29 *5:14 *442:A 0.000107463
30 *6:14 *442:A 2.58616e-05
*RES
1 *440:Y *7:16 48.5771 
2 *7:16 *442:A 38.0214 
*END

*D_NET *8 0.00464129
*CONN
*I *442:D I *D sky130_fd_sc_hd__nand4_1
*I *441:Y O *D sky130_fd_sc_hd__nor4_4
*CAP
1 *442:D 0.000972487
2 *441:Y 0.000370818
3 *8:20 0.00134331
4 *442:D *494:B 4.7798e-05
5 *442:D *496:A 8.55001e-05
6 *442:D *496:B 2.38389e-05
7 *442:D *497:A 5.80109e-06
8 *442:D *497:B 0.000121494
9 *442:D *499:A2 9.04883e-05
10 *442:D *513:A2 0
11 *442:D *537:A2 0.000116986
12 *442:D *537:B1 8.3647e-05
13 *442:D *558:A1 0
14 *442:D *559:A 0
15 *442:D *641:A0 0
16 *442:D *892:A 0.000162285
17 *442:D *9:10 1.83992e-05
18 *442:D *48:14 0.000328367
19 *442:D *359:97 0
20 *442:D *359:176 0
21 *442:D *359:191 0
22 *442:D *388:73 6.50727e-05
23 *442:D *427:124 0
24 *8:20 *441:D 6.13051e-05
25 *8:20 *513:A1 0.000208606
26 *8:20 *518:C 0.000406962
27 *8:20 *518:D 5.23947e-05
28 *8:20 *523:B1 2.59855e-05
29 *8:20 *66:10 4.97441e-05
*RES
1 *441:Y *8:20 33.1689 
2 *8:20 *442:D 40.3892 
*END

*D_NET *9 0.00455805
*CONN
*I *443:B1 I *D sky130_fd_sc_hd__a22oi_1
*I *452:A1 I *D sky130_fd_sc_hd__a21bo_2
*I *442:Y O *D sky130_fd_sc_hd__nand4_1
*CAP
1 *443:B1 0.000551261
2 *452:A1 0.000135257
3 *442:Y 0.00095738
4 *9:10 0.0016439
5 *443:B1 *443:A2 0.000154427
6 *443:B1 *443:B2 8.36586e-06
7 *443:B1 *453:B1 4.04151e-05
8 *443:B1 *395:27 0.000154149
9 *452:A1 *447:B 0.000209385
10 *452:A1 *899:A 8.32519e-05
11 *452:A1 *359:14 8.36429e-06
12 *452:A1 *388:14 7.90533e-06
13 *452:A1 *426:27 4.29019e-05
14 *9:10 *447:B 5.64161e-05
15 *9:10 *558:A2 0.000174704
16 *9:10 *899:A 5.17286e-05
17 *9:10 *110:12 6.27718e-05
18 *9:10 *388:14 2.16355e-05
19 *9:10 *388:44 0.00010003
20 *9:10 *388:73 7.11102e-05
21 *442:D *9:10 1.83992e-05
22 *6:14 *9:10 4.29314e-06
*RES
1 *442:Y *9:10 29.5467 
2 *9:10 *452:A1 18.2803 
3 *9:10 *443:B1 23.5706 
*END

*D_NET *10 0.000784035
*CONN
*I *444:B I *D sky130_fd_sc_hd__nor2_1
*I *443:Y O *D sky130_fd_sc_hd__a22oi_1
*CAP
1 *444:B 0.000333295
2 *443:Y 0.000333295
3 *444:B *443:B2 1.21461e-06
4 *444:B *444:A 1.78514e-05
5 *444:B *453:B1 3.36866e-05
6 *444:B *644:CLK 0
7 *444:B *391:16 1.07325e-05
8 *646:D *444:B 5.39608e-05
*RES
1 *443:Y *444:B 34.9002 
*END

*D_NET *11 0.00454185
*CONN
*I *830:A I *D sky130_fd_sc_hd__buf_4
*I *447:B I *D sky130_fd_sc_hd__nor2_4
*I *445:Y O *D sky130_fd_sc_hd__inv_1
*CAP
1 *830:A 0.000328469
2 *447:B 0.000317138
3 *445:Y 0.000636566
4 *11:8 0.00128217
5 *447:B *829:A 0.000113968
6 *447:B *899:A 0.000102688
7 *447:B *278:10 6.50727e-05
8 *447:B *359:14 0.000188695
9 *447:B *428:14 0
10 *830:A *452:A2 0.000104534
11 *830:A *813:A 0.000302956
12 *11:8 *779:A 0.000822481
13 *11:8 *428:14 1.13103e-05
14 *452:A1 *447:B 0.000209385
15 *9:10 *447:B 5.64161e-05
*RES
1 *445:Y *11:8 20.2568 
2 *11:8 *447:B 28.8337 
3 *11:8 *830:A 17.7611 
*END

*D_NET *12 0.000810537
*CONN
*I *449:A2 I *D sky130_fd_sc_hd__a221o_1
*I *448:Y O *D sky130_fd_sc_hd__inv_1
*CAP
1 *449:A2 0.000166174
2 *448:Y 0.000166174
3 *449:A2 *644:CLK 6.23917e-05
4 *449:A2 *862:A 1.04194e-05
5 *449:A2 *278:10 1.67329e-05
6 *449:A2 *391:16 5.27944e-05
7 *449:A2 *426:67 0.000289542
8 *449:A2 *426:82 4.63086e-05
*RES
1 *448:Y *449:A2 33.7126 
*END

*D_NET *13 0.00365286
*CONN
*I *451:A2 I *D sky130_fd_sc_hd__o21ai_0
*I *450:Y O *D sky130_fd_sc_hd__inv_1
*CAP
1 *451:A2 0
2 *450:Y 0.00124266
3 *13:16 0.00124266
4 *13:16 *443:A1 4.90385e-05
5 *13:16 *451:B1 0.00036447
6 *13:16 *453:A2 0.0001126
7 *13:16 *466:A 5.04829e-06
8 *13:16 *466:B 0.000107245
9 *13:16 *646:CLK 4.16147e-05
10 *13:16 *388:14 3.05909e-05
11 *13:16 *390:8 2.69823e-05
12 *13:16 *391:40 0.000347794
13 *13:16 *426:27 0
14 *13:16 *426:35 4.14311e-05
15 *13:16 *426:41 3.5063e-05
16 *645:D *13:16 0
17 *646:D *13:16 5.67307e-06
*RES
1 *450:Y *13:16 46.9006 
2 *13:16 *451:A2 9.24915 
*END

*D_NET *14 0.00185075
*CONN
*I *453:A2 I *D sky130_fd_sc_hd__a21oi_2
*I *451:Y O *D sky130_fd_sc_hd__o21ai_0
*CAP
1 *453:A2 0.00060569
2 *451:Y 0.00060569
3 *453:A2 *445:A 0.000235823
4 *453:A2 *451:B1 0
5 *453:A2 *453:B1 0.000120749
6 *453:A2 *466:C 5.41227e-05
7 *453:A2 *24:10 7.81453e-05
8 *453:A2 *159:18 0
9 *453:A2 *159:20 0
10 *645:D *453:A2 3.79256e-05
11 *13:16 *453:A2 0.0001126
*RES
1 *451:Y *453:A2 42.6437 
*END

*D_NET *15 0.0008672
*CONN
*I *453:A1 I *D sky130_fd_sc_hd__a21oi_2
*I *452:X O *D sky130_fd_sc_hd__a21bo_2
*CAP
1 *453:A1 8.36563e-05
2 *452:X 8.36563e-05
3 *453:A1 *443:B2 0.000158451
4 *453:A1 *445:A 0.000112361
5 *453:A1 *453:B1 1.96456e-05
6 *453:A1 *779:A 0.00040943
*RES
1 *452:X *453:A1 23.1039 
*END

*D_NET *16 0.00245431
*CONN
*I *905:A I *D sky130_fd_sc_hd__buf_4
*I *459:A I *D sky130_fd_sc_hd__maj3_2
*I *455:Y O *D sky130_fd_sc_hd__nor2b_4
*CAP
1 *905:A 0
2 *459:A 0.000455954
3 *455:Y 0.000436097
4 *16:12 0.000892051
5 *459:A *459:C 1.03594e-05
6 *459:A *460:B 0.000198113
7 *459:A *159:12 5.38612e-06
8 *459:A *162:8 9.16123e-05
9 *459:A *343:10 4.65075e-05
10 *459:A *427:50 0.000200785
11 *16:12 *457:A 0
12 *16:12 *343:10 0
13 *16:12 *404:19 0.000117446
*RES
1 *455:Y *16:12 25.6566 
2 *16:12 *459:A 31.8882 
3 *16:12 *905:A 9.24915 
*END

*D_NET *17 0.000795133
*CONN
*I *457:B I *D sky130_fd_sc_hd__xnor2_2
*I *456:Y O *D sky130_fd_sc_hd__xnor2_4
*CAP
1 *457:B 0.000200392
2 *456:Y 0.000200392
3 *457:B *590:A1 3.31733e-05
4 *457:B *838:A 0.000160171
5 *457:B *268:14 5.55605e-05
6 *457:B *358:10 0.000145443
*RES