*SPEF "ieee 1481-1999"
*DESIGN "clock_div"
*DATE "17:31:26 Thursday April 02, 2026"
*VENDOR "The OpenROAD Project"
*PROGRAM "OpenROAD"
*VERSION "v2.0-28075-g0f99689f45"
*DESIGN_FLOW "NAME_SCOPE LOCAL" "PIN_CAP NONE"
*DIVIDER /
*DELIMITER :
*BUS_DELIMITER []
*T_UNIT 1 NS
*C_UNIT 1 PF
*R_UNIT 1 OHM
*L_UNIT 1 HENRY

*NAME_MAP
*1 net1
*2 net2
*3 net3
*4 _000_
*5 _001_
*6 _002_
*7 _003_
*8 _004_
*9 _005_
*10 _006_
*11 _007_
*12 _008_
*13 _009_
*14 _010_
*15 _011_
*16 _012_
*17 _013_
*18 _014_
*19 _015_
*20 _016_
*21 _017_
*22 _018_
*23 _019_
*24 _020_
*25 _021_
*26 _022_
*27 _023_
*28 _024_
*29 _025_
*30 _026_
*31 _027_
*32 _028_
*33 _029_
*34 _030_
*35 _031_
*36 _032_
*37 _033_
*38 _034_
*39 _035_
*40 _036_
*41 _037_
*42 _038_
*43 _039_
*44 _040_
*45 _041_
*46 _042_
*47 _043_
*48 _044_
*49 _045_
*50 _046_
*51 _047_
*52 _048_
*53 _049_
*54 _050_
*55 _051_
*56 _052_
*57 _053_
*58 _054_
*59 _055_
*60 _056_
*61 _057_
*62 _058_
*63 _059_
*64 _060_
*65 _061_
*66 _062_
*67 _063_
*68 _064_
*69 _065_
*70 _066_
*71 _067_
*72 _068_
*73 _069_
*74 _070_
*75 _071_
*76 _072_
*77 _073_
*78 _074_
*79 _075_
*80 _076_
*81 _077_
*82 _078_
*83 _079_
*84 _080_
*85 _081_
*86 _082_
*87 _083_
*88 _084_
*89 _085_
*90 _086_
*91 _087_
*92 _088_
*93 _089_
*94 _090_
*95 _091_
*96 _092_
*97 _093_
*98 _094_
*99 _095_
*100 _096_
*101 _097_
*102 _098_
*103 _099_
*104 _100_
*105 _101_
*106 _102_
*107 _103_
*108 _104_
*109 _105_
*110 _106_
*111 _107_
*112 _108_
*113 _109_
*114 _110_
*115 _111_
*116 _112_
*117 _113_
*118 _114_
*119 _115_
*120 _116_
*121 _117_
*122 _118_
*123 _119_
*124 _120_
*125 _121_
*126 _122_
*127 _123_
*128 _124_
*129 _125_
*130 in_regs
*131 _127_
*132 even_0\.out_counter
*133 in
*134 odd_0\.out_counter
*135 odd_0\.out_counter2
*136 odd_0\.rst_pulse
*137 net5
*138 net4
*141 N[0]
*142 N[1]
*143 N[2]
*144 resetb
*145 out
*146 net8
*147 net7
*148 net9
*149 net10
*150 net5_regs
*151 clknet_0_in
*152 clknet_1_0__leaf_in
*153 clknet_0_in_regs
*154 clknet_1_0__leaf_in_regs
*155 clknet_1_1__leaf_in_regs
*156 clknet_0_net5
*157 clknet_1_0__leaf_net5
*158 clknet_0_net5_regs
*159 clknet_1_0__leaf_net5_regs
*160 clknet_1_1__leaf_net5_regs
*161 delaynet_0_clk_div
*162 delaynet_1_clk_div
*163 delaynet_2_clk_div
*164 _128_
*165 _129_
*166 _130_
*167 _131_
*168 _132_
*169 _133_
*170 _134_
*171 _135_
*172 _136_
*173 _137_
*174 _138_
*175 _139_
*176 _140_
*177 _141_
*178 _142_
*179 _143_
*180 _144_
*181 _145_
*182 _146_
*183 _147_
*184 _148_
*185 _149_
*186 _150_
*187 _151_
*188 _152_
*189 _153_
*190 _154_
*191 _155_
*192 _156_
*193 _157_
*194 _158_
*195 _159_
*196 _160_
*197 _161_
*198 _162_
*199 _163_
*200 _164_
*201 _165_
*202 _166_
*203 _167_
*204 _168_
*205 _169_
*206 _170_
*207 _171_
*208 _172_
*209 _173_
*210 _174_
*211 _175_
*212 _176_
*213 _177_
*214 _178_
*215 _179_
*216 _180_
*217 _181_
*218 _182_
*219 _183_
*220 _184_
*221 _185_
*222 _186_
*223 _187_
*224 _188_
*225 _189_
*226 _190_
*227 _191_
*228 _192_
*229 _193_
*230 _194_
*231 _195_
*232 _196_
*233 _197_
*234 _198_
*235 _199_
*236 _200_
*237 _201_
*238 _202_
*239 _203_
*240 _204_
*241 _205_
*242 _206_
*243 _207_
*244 _208_
*245 _209_
*246 _210_
*247 _211_
*248 _212_
*249 _213_
*250 _214_
*251 _215_
*252 _216_
*253 _217_
*254 _218_
*255 _219_
*256 _220_
*257 _221_
*258 _222_
*259 clkbuf_regs_0_clk_div
*260 _224_
*261 even_0\.counter\[0\]\$_DFFE_PN1N_
*262 even_0\.counter\[1\]\$_DFFE_PN0N_
*263 even_0\.counter\[2\]\$_DFFE_PN0N_
*264 even_0\.out_counter\$_DFFE_PN1P_
*265 odd_0\.counter2\[0\]\$_DFFE_NN0P_
*266 odd_0\.counter2\[1\]\$_DFFE_NN1P_
*267 odd_0\.counter2\[2\]\$_DFFE_NN0P_
*268 odd_0\.counter\[0\]\$_DFFE_PN0P_
*269 odd_0\.counter\[1\]\$_DFFE_PN1P_
*270 odd_0\.counter\[2\]\$_DFFE_PN0P_
*271 odd_0\.initial_begin\[0\]\$_DFFE_NN0P_
*272 odd_0\.initial_begin\[1\]\$_DFFE_NN1P_
*273 odd_0\.initial_begin\[2\]\$_DFFE_NN0P_
*274 odd_0\.old_N\[0\]\$_DFF_P_
*275 odd_0\.old_N\[1\]\$_DFF_P_
*276 odd_0\.old_N\[2\]\$_DFF_P_
*277 odd_0\.out_counter\$_DFFE_PN1P_
*278 odd_0\.out_counter2\$_DFFE_NN1P_
*279 odd_0\.rst_pulse\$_DFFE_PN0P_
*280 syncN\[0\]\$_DFF_PN0_
*281 syncN\[1\]\$_DFF_PN1_
*282 syncN\[2\]\$_DFF_PN0_
*283 syncNp\[0\]\$_DFF_PN0_
*284 syncNp\[1\]\$_DFF_PN1_
*285 syncNp\[2\]\$_DFF_PN0_
*286 TAP_TAPCELL_ROW_0_0
*287 TAP_TAPCELL_ROW_0_1
*288 TAP_TAPCELL_ROW_0_2
*289 TAP_TAPCELL_ROW_0_3
*290 TAP_TAPCELL_ROW_0_4
*291 TAP_TAPCELL_ROW_1_5
*292 TAP_TAPCELL_ROW_1_6
*293 TAP_TAPCELL_ROW_2_7
*294 TAP_TAPCELL_ROW_2_8
*295 TAP_TAPCELL_ROW_2_9
*296 TAP_TAPCELL_ROW_3_10
*297 TAP_TAPCELL_ROW_3_11
*298 TAP_TAPCELL_ROW_4_12
*299 TAP_TAPCELL_ROW_4_13
*300 TAP_TAPCELL_ROW_4_14
*301 TAP_TAPCELL_ROW_5_15
*302 TAP_TAPCELL_ROW_5_16
*303 TAP_TAPCELL_ROW_6_17
*304 TAP_TAPCELL_ROW_6_18
*305 TAP_TAPCELL_ROW_6_19
*306 TAP_TAPCELL_ROW_7_20
*307 TAP_TAPCELL_ROW_7_21
*308 TAP_TAPCELL_ROW_8_22
*309 TAP_TAPCELL_ROW_8_23
*310 TAP_TAPCELL_ROW_8_24
*311 TAP_TAPCELL_ROW_9_25
*312 TAP_TAPCELL_ROW_9_26
*313 TAP_TAPCELL_ROW_10_27
*314 TAP_TAPCELL_ROW_10_28
*315 TAP_TAPCELL_ROW_10_29
*316 TAP_TAPCELL_ROW_11_30
*317 TAP_TAPCELL_ROW_11_31
*318 TAP_TAPCELL_ROW_12_32
*319 TAP_TAPCELL_ROW_12_33
*320 TAP_TAPCELL_ROW_12_34
*321 TAP_TAPCELL_ROW_13_35
*322 TAP_TAPCELL_ROW_13_36
*323 TAP_TAPCELL_ROW_14_37
*324 TAP_TAPCELL_ROW_14_38
*325 TAP_TAPCELL_ROW_14_39
*326 TAP_TAPCELL_ROW_15_40
*327 TAP_TAPCELL_ROW_15_41
*328 TAP_TAPCELL_ROW_16_42
*329 TAP_TAPCELL_ROW_16_43
*330 TAP_TAPCELL_ROW_16_44
*331 TAP_TAPCELL_ROW_17_45
*332 TAP_TAPCELL_ROW_17_46
*333 TAP_TAPCELL_ROW_18_47
*334 TAP_TAPCELL_ROW_18_48
*335 TAP_TAPCELL_ROW_18_49
*336 TAP_TAPCELL_ROW_19_50
*337 TAP_TAPCELL_ROW_19_51
*338 TAP_TAPCELL_ROW_20_52
*339 TAP_TAPCELL_ROW_20_53
*340 TAP_TAPCELL_ROW_20_54
*341 TAP_TAPCELL_ROW_21_55
*342 TAP_TAPCELL_ROW_21_56
*343 TAP_TAPCELL_ROW_22_57
*344 TAP_TAPCELL_ROW_22_58
*345 TAP_TAPCELL_ROW_22_59
*346 TAP_TAPCELL_ROW_23_60
*347 TAP_TAPCELL_ROW_23_61
*348 TAP_TAPCELL_ROW_24_62
*349 TAP_TAPCELL_ROW_24_63
*350 TAP_TAPCELL_ROW_24_64
*351 TAP_TAPCELL_ROW_25_65
*352 TAP_TAPCELL_ROW_25_66
*353 TAP_TAPCELL_ROW_26_67
*354 TAP_TAPCELL_ROW_26_68
*355 TAP_TAPCELL_ROW_26_69
*356 TAP_TAPCELL_ROW_27_70
*357 TAP_TAPCELL_ROW_27_71
*358 TAP_TAPCELL_ROW_28_72
*359 TAP_TAPCELL_ROW_28_73
*360 TAP_TAPCELL_ROW_28_74
*361 TAP_TAPCELL_ROW_28_75
*362 TAP_TAPCELL_ROW_28_76
*363 input1
*364 input2
*365 input3
*366 input4
*367 output5
*368 _223__8
*369 place7
*370 _223__9
*371 _223__10
*372 clkbuf_regs_1_clk_div
*373 clkbuf_0_in
*374 clkbuf_1_0__f_in
*375 clkbuf_0_in_regs
*376 clkbuf_1_0__f_in_regs
*377 clkbuf_1_1__f_in_regs
*378 clkload0
*379 clkbuf_0_net5
*380 clkbuf_1_0__f_net5
*381 clkbuf_0_net5_regs
*382 clkbuf_1_0__f_net5_regs
*383 clkbuf_1_1__f_net5_regs
*384 clkload1
*385 delaybuf_0_clk_div
*386 delaybuf_1_clk_div
*387 delaybuf_2_clk_div
*388 FILLER_0_0
*389 FILLER_0_8
*390 FILLER_0_16
*391 FILLER_0_24
*392 FILLER_0_28
*393 FILLER_0_31
*394 FILLER_0_39
*395 FILLER_0_47
*396 FILLER_0_55
*397 FILLER_0_59
*398 FILLER_0_61
*399 FILLER_0_69
*400 FILLER_0_77
*401 FILLER_0_85
*402 FILLER_0_89
*403 FILLER_0_91
*404 FILLER_0_99
*405 FILLER_0_107
*406 FILLER_0_115
*407 FILLER_0_119
*408 FILLER_0_121
*409 FILLER_0_129
*410 FILLER_0_137
*411 FILLER_0_145
*412 FILLER_0_149
*413 FILLER_0_151
*414 FILLER_0_159
*415 FILLER_0_167
*416 FILLER_0_175
*417 FILLER_1_0
*418 FILLER_1_8
*419 FILLER_1_16
*420 FILLER_1_24
*421 FILLER_1_32
*422 FILLER_1_40
*423 FILLER_1_48
*424 FILLER_1_56
*425 FILLER_1_70
*426 FILLER_1_75
*427 FILLER_1_83
*428 FILLER_1_91
*429 FILLER_1_99
*430 FILLER_1_107
*431 FILLER_1_115
*432 FILLER_1_119
*433 FILLER_1_121
*434 FILLER_1_129
*435 FILLER_1_137
*436 FILLER_1_145
*437 FILLER_1_153
*438 FILLER_1_161
*439 FILLER_1_169
*440 FILLER_1_177
*441 FILLER_2_0
*442 FILLER_2_8
*443 FILLER_2_16
*444 FILLER_2_24
*445 FILLER_2_28
*446 FILLER_2_31
*447 FILLER_2_39
*448 FILLER_2_47
*449 FILLER_2_91
*450 FILLER_2_99
*451 FILLER_2_125
*452 FILLER_2_133
*453 FILLER_2_141
*454 FILLER_2_149
*455 FILLER_2_151
*456 FILLER_2_159
*457 FILLER_2_167
*458 FILLER_2_175
*459 FILLER_3_0
*460 FILLER_3_8
*461 FILLER_3_16
*462 FILLER_3_24
*463 FILLER_3_32
*464 FILLER_3_40
*465 FILLER_3_48
*466 FILLER_3_52
*467 FILLER_3_54
*468 FILLER_3_81
*469 FILLER_3_89
*470 FILLER_3_97
*471 FILLER_3_119
*472 FILLER_3_124
*473 FILLER_3_132
*474 FILLER_3_140
*475 FILLER_3_148
*476 FILLER_3_156
*477 FILLER_3_164
*478 FILLER_3_172
*479 FILLER_3_176
*480 FILLER_3_178
*481 FILLER_4_0
*482 FILLER_4_8
*483 FILLER_4_16
*484 FILLER_4_24
*485 FILLER_4_28
*486 FILLER_4_31
*487 FILLER_4_39
*488 FILLER_4_47
*489 FILLER_4_51
*490 FILLER_4_81
*491 FILLER_4_89
*492 FILLER_4_91
*493 FILLER_4_99
*494 FILLER_4_107
*495 FILLER_4_109
*496 FILLER_4_130
*497 FILLER_4_138
*498 FILLER_4_146
*499 FILLER_4_151
*500 FILLER_4_159
*501 FILLER_4_167
*502 FILLER_4_175
*503 FILLER_5_0
*504 FILLER_5_8
*505 FILLER_5_16
*506 FILLER_5_24
*507 FILLER_5_32
*508 FILLER_5_40
*509 FILLER_5_48
*510 FILLER_5_52
*511 FILLER_5_65
*512 FILLER_5_79
*513 FILLER_5_87
*514 FILLER_5_95
*515 FILLER_5_99
*516 FILLER_5_115
*517 FILLER_5_148
*518 FILLER_5_156
*519 FILLER_5_164
*520 FILLER_5_172
*521 FILLER_5_176
*522 FILLER_5_178
*523 FILLER_6_0
*524 FILLER_6_8
*525 FILLER_6_16
*526 FILLER_6_24
*527 FILLER_6_28
*528 FILLER_6_31
*529 FILLER_6_35
*530 FILLER_6_37
*531 FILLER_6_59
*532 FILLER_6_64
*533 FILLER_6_70
*534 FILLER_6_74
*535 FILLER_6_82
*536 FILLER_6_91
*537 FILLER_6_99
*538 FILLER_6_107
*539 FILLER_6_115
*540 FILLER_6_130
*541 FILLER_6_138
*542 FILLER_6_146
*543 FILLER_6_151
*544 FILLER_6_159
*545 FILLER_6_167
*546 FILLER_6_175
*547 FILLER_7_0
*548 FILLER_7_8
*549 FILLER_7_16
*550 FILLER_7_24
*551 FILLER_7_37
*552 FILLER_7_39
*553 FILLER_7_51
*554 FILLER_7_59
*555 FILLER_7_64
*556 FILLER_7_72
*557 FILLER_7_80
*558 FILLER_7_88
*559 FILLER_7_96
*560 FILLER_7_104
*561 FILLER_7_112
*562 FILLER_7_121
*563 FILLER_7_129
*564 FILLER_7_137
*565 FILLER_7_145
*566 FILLER_7_153
*567 FILLER_7_157
*568 FILLER_7_173
*569 FILLER_7_177
*570 FILLER_8_0
*571 FILLER_8_8
*572 FILLER_8_12
*573 FILLER_8_14
*574 FILLER_8_26
*575 FILLER_8_31
*576 FILLER_8_33
*577 FILLER_8_55
*578 FILLER_8_57
*579 FILLER_8_77
*580 FILLER_8_85
*581 FILLER_8_89
*582 FILLER_8_91
*583 FILLER_8_99
*584 FILLER_8_107
*585 FILLER_8_115
*586 FILLER_8_120
*587 FILLER_8_122
*588 FILLER_8_129
*589 FILLER_8_137
*590 FILLER_8_145
*591 FILLER_8_149
*592 FILLER_8_151
*593 FILLER_8_159
*594 FILLER_8_167
*595 FILLER_8_175
*596 FILLER_9_0
*597 FILLER_9_48
*598 FILLER_9_56
*599 FILLER_9_61
*600 FILLER_9_69
*601 FILLER_9_94
*602 FILLER_9_98
*603 FILLER_9_104
*604 FILLER_9_111
*605 FILLER_9_113
*606 FILLER_9_119
*607 FILLER_9_121
*608 FILLER_9_144
*609 FILLER_9_152
*610 FILLER_9_160
*611 FILLER_9_173
*612 FILLER_9_177
*613 FILLER_10_0
*614 FILLER_10_38
*615 FILLER_10_40
*616 FILLER_10_61
*617 FILLER_10_69
*618 FILLER_10_75
*619 FILLER_10_82
*620 FILLER_10_97
*621 FILLER_10_101
*622 FILLER_10_103
*623 FILLER_10_118
*624 FILLER_10_137
*625 FILLER_10_151
*626 FILLER_10_159
*627 FILLER_10_167
*628 FILLER_10_175
*629 FILLER_11_19
*630 FILLER_11_43
*631 FILLER_11_51
*632 FILLER_11_59
*633 FILLER_11_61
*634 FILLER_11_69
*635 FILLER_11_77
*636 FILLER_11_102
*637 FILLER_11_106
*638 FILLER_11_118
*639 FILLER_11_121
*640 FILLER_11_123
*641 FILLER_11_151
*642 FILLER_11_159
*643 FILLER_11_167
*644 FILLER_11_175
*645 FILLER_12_0
*646 FILLER_12_29
*647 FILLER_12_42
*648 FILLER_12_46
*649 FILLER_12_62
*650 FILLER_12_70
*651 FILLER_12_78
*652 FILLER_12_86
*653 FILLER_12_91
*654 FILLER_12_99
*655 FILLER_12_107
*656 FILLER_12_115
*657 FILLER_12_137
*658 FILLER_12_145
*659 FILLER_12_149
*660 FILLER_12_151
*661 FILLER_12_159
*662 FILLER_12_167
*663 FILLER_12_175
*664 FILLER_13_0
*665 FILLER_13_2
*666 FILLER_13_17
*667 FILLER_13_25
*668 FILLER_13_33
*669 FILLER_13_37
*670 FILLER_13_61
*671 FILLER_13_69
*672 FILLER_13_77
*673 FILLER_13_81
*674 FILLER_13_83
*675 FILLER_13_94
*676 FILLER_13_96
*677 FILLER_13_102
*678 FILLER_13_110
*679 FILLER_13_112
*680 FILLER_13_119
*681 FILLER_13_127
*682 FILLER_13_135
*683 FILLER_13_137
*684 FILLER_13_155
*685 FILLER_13_160
*686 FILLER_13_168
*687 FILLER_13_176
*688 FILLER_13_178
*689 FILLER_14_0
*690 FILLER_14_8
*691 FILLER_14_16
*692 FILLER_14_24
*693 FILLER_14_28
*694 FILLER_14_31
*695 FILLER_14_39
*696 FILLER_14_41
*697 FILLER_14_58
*698 FILLER_14_66
*699 FILLER_14_74
*700 FILLER_14_78
*701 FILLER_14_83
*702 FILLER_14_87
*703 FILLER_14_89
*704 FILLER_14_91
*705 FILLER_14_99
*706 FILLER_14_107
*707 FILLER_14_115
*708 FILLER_14_119
*709 FILLER_14_132
*710 FILLER_14_136
*711 FILLER_14_151
*712 FILLER_14_166
*713 FILLER_14_174
*714 FILLER_14_178
*715 FILLER_15_0
*716 FILLER_15_8
*717 FILLER_15_16
*718 FILLER_15_24
*719 FILLER_15_32
*720 FILLER_15_40
*721 FILLER_15_48
*722 FILLER_15_56
*723 FILLER_15_61
*724 FILLER_15_69
*725 FILLER_15_73
*726 FILLER_15_75
*727 FILLER_15_86
*728 FILLER_15_94
*729 FILLER_15_102
*730 FILLER_15_109
*731 FILLER_15_117
*732 FILLER_15_119
*733 FILLER_15_121
*734 FILLER_15_129
*735 FILLER_15_137
*736 FILLER_15_177
*737 FILLER_16_0
*738 FILLER_16_12
*739 FILLER_16_20
*740 FILLER_16_28
*741 FILLER_16_31
*742 FILLER_16_39
*743 FILLER_16_47
*744 FILLER_16_55
*745 FILLER_16_63
*746 FILLER_16_71
*747 FILLER_16_75
*748 FILLER_16_99
*749 FILLER_16_126
*750 FILLER_16_128
*751 FILLER_16_132
*752 FILLER_16_140
*753 FILLER_16_151
*754 FILLER_16_153
*755 FILLER_16_160
*756 FILLER_16_168
*757 FILLER_16_176
*758 FILLER_16_178
*759 FILLER_17_0
*760 FILLER_17_8
*761 FILLER_17_16
*762 FILLER_17_24
*763 FILLER_17_32
*764 FILLER_17_40
*765 FILLER_17_48
*766 FILLER_17_56
*767 FILLER_17_61
*768 FILLER_17_65
*769 FILLER_17_86
*770 FILLER_17_107
*771 FILLER_17_115
*772 FILLER_17_119
*773 FILLER_17_121
*774 FILLER_17_129
*775 FILLER_17_133
*776 FILLER_17_155
*777 FILLER_17_163
*778 FILLER_17_171
*779 FILLER_18_0
*780 FILLER_18_8
*781 FILLER_18_16
*782 FILLER_18_24
*783 FILLER_18_28
*784 FILLER_18_31
*785 FILLER_18_39
*786 FILLER_18_47
*787 FILLER_18_55
*788 FILLER_18_63
*789 FILLER_18_65
*790 FILLER_18_86
*791 FILLER_18_94
*792 FILLER_18_129
*793 FILLER_18_133
*794 FILLER_18_138
*795 FILLER_18_146
*796 FILLER_18_151
*797 FILLER_18_159
*798 FILLER_18_167
*799 FILLER_18_175
*800 FILLER_19_0
*801 FILLER_19_8
*802 FILLER_19_16
*803 FILLER_19_24
*804 FILLER_19_32
*805 FILLER_19_40
*806 FILLER_19_48
*807 FILLER_19_56
*808 FILLER_19_61
*809 FILLER_19_69
*810 FILLER_19_77
*811 FILLER_19_81
*812 FILLER_19_109
*813 FILLER_19_117
*814 FILLER_19_119
*815 FILLER_19_121
*816 FILLER_19_129
*817 FILLER_19_137
*818 FILLER_19_145
*819 FILLER_19_153
*820 FILLER_19_161
*821 FILLER_19_169
*822 FILLER_19_177
*823 FILLER_20_0
*824 FILLER_20_8
*825 FILLER_20_16
*826 FILLER_20_24
*827 FILLER_20_28
*828 FILLER_20_31
*829 FILLER_20_39
*830 FILLER_20_47
*831 FILLER_20_55
*832 FILLER_20_63
*833 FILLER_20_71
*834 FILLER_20_79
*835 FILLER_20_87
*836 FILLER_20_89
*837 FILLER_20_91
*838 FILLER_20_99
*839 FILLER_20_107
*840 FILLER_20_115
*841 FILLER_20_123
*842 FILLER_20_131
*843 FILLER_20_139
*844 FILLER_20_147
*845 FILLER_20_149
*846 FILLER_20_151
*847 FILLER_20_159
*848 FILLER_20_167
*849 FILLER_20_175
*850 FILLER_21_0
*851 FILLER_21_8
*852 FILLER_21_16
*853 FILLER_21_24
*854 FILLER_21_32
*855 FILLER_21_40
*856 FILLER_21_48
*857 FILLER_21_56
*858 FILLER_21_61
*859 FILLER_21_69
*860 FILLER_21_77
*861 FILLER_21_85
*862 FILLER_21_93
*863 FILLER_21_101
*864 FILLER_21_109
*865 FILLER_21_117
*866 FILLER_21_119
*867 FILLER_21_121
*868 FILLER_21_129
*869 FILLER_21_137
*870 FILLER_21_145
*871 FILLER_21_153
*872 FILLER_21_161
*873 FILLER_21_169
*874 FILLER_21_177
*875 FILLER_22_0
*876 FILLER_22_8
*877 FILLER_22_16
*878 FILLER_22_24
*879 FILLER_22_28
*880 FILLER_22_31
*881 FILLER_22_39
*882 FILLER_22_47
*883 FILLER_22_55
*884 FILLER_22_63
*885 FILLER_22_71
*886 FILLER_22_79
*887 FILLER_22_87
*888 FILLER_22_89
*889 FILLER_22_91
*890 FILLER_22_99
*891 FILLER_22_107
*892 FILLER_22_115
*893 FILLER_22_123
*894 FILLER_22_131
*895 FILLER_22_139
*896 FILLER_22_147
*897 FILLER_22_149
*898 FILLER_22_151
*899 FILLER_22_159
*900 FILLER_22_167
*901 FILLER_22_175
*902 FILLER_23_0
*903 FILLER_23_8
*904 FILLER_23_16
*905 FILLER_23_24
*906 FILLER_23_32
*907 FILLER_23_40
*908 FILLER_23_48
*909 FILLER_23_56
*910 FILLER_23_61
*911 FILLER_23_69
*912 FILLER_23_77
*913 FILLER_23_85
*914 FILLER_23_93
*915 FILLER_23_101
*916 FILLER_23_109
*917 FILLER_23_117
*918 FILLER_23_119
*919 FILLER_23_121
*920 FILLER_23_129
*921 FILLER_23_137
*922 FILLER_23_145
*923 FILLER_23_153
*924 FILLER_23_161
*925 FILLER_23_169
*926 FILLER_23_177
*927 FILLER_24_0
*928 FILLER_24_8
*929 FILLER_24_16
*930 FILLER_24_24
*931 FILLER_24_28
*932 FILLER_24_31
*933 FILLER_24_39
*934 FILLER_24_47
*935 FILLER_24_55
*936 FILLER_24_63
*937 FILLER_24_71
*938 FILLER_24_79
*939 FILLER_24_87
*940 FILLER_24_89
*941 FILLER_24_91
*942 FILLER_24_99
*943 FILLER_24_107
*944 FILLER_24_115
*945 FILLER_24_123
*946 FILLER_24_131
*947 FILLER_24_139
*948 FILLER_24_147
*949 FILLER_24_149
*950 FILLER_24_151
*951 FILLER_24_159
*952 FILLER_24_167
*953 FILLER_24_175
*954 FILLER_25_0
*955 FILLER_25_8
*956 FILLER_25_16
*957 FILLER_25_24
*958 FILLER_25_32
*959 FILLER_25_40
*960 FILLER_25_48
*961 FILLER_25_56
*962 FILLER_25_61
*963 FILLER_25_69
*964 FILLER_25_77
*965 FILLER_25_85
*966 FILLER_25_93
*967 FILLER_25_101
*968 FILLER_25_109
*969 FILLER_25_117
*970 FILLER_25_119
*971 FILLER_25_121
*972 FILLER_25_129
*973 FILLER_25_137
*974 FILLER_25_145
*975 FILLER_25_153
*976 FILLER_25_161
*977 FILLER_25_169
*978 FILLER_25_177
*979 FILLER_26_0
*980 FILLER_26_8
*981 FILLER_26_16
*982 FILLER_26_24
*983 FILLER_26_28
*984 FILLER_26_31
*985 FILLER_26_39
*986 FILLER_26_47
*987 FILLER_26_55
*988 FILLER_26_63
*989 FILLER_26_71
*990 FILLER_26_79
*991 FILLER_26_87
*992 FILLER_26_89
*993 FILLER_26_91
*994 FILLER_26_99
*995 FILLER_26_107
*996 FILLER_26_115
*997 FILLER_26_123
*998 FILLER_26_131
*999 FILLER_26_139
*1000 FILLER_26_147
*1001 FILLER_26_149
*1002 FILLER_26_151
*1003 FILLER_26_159
*1004 FILLER_26_167
*1005 FILLER_26_175
*1006 FILLER_27_0
*1007 FILLER_27_8
*1008 FILLER_27_16
*1009 FILLER_27_24
*1010 FILLER_27_32
*1011 FILLER_27_40
*1012 FILLER_27_48
*1013 FILLER_27_56
*1014 FILLER_27_61
*1015 FILLER_27_69
*1016 FILLER_27_77
*1017 FILLER_27_85
*1018 FILLER_27_93
*1019 FILLER_27_101
*1020 FILLER_27_109
*1021 FILLER_27_117
*1022 FILLER_27_119
*1023 FILLER_27_121
*1024 FILLER_27_129
*1025 FILLER_27_137
*1026 FILLER_27_145
*1027 FILLER_27_153
*1028 FILLER_27_161
*1029 FILLER_27_169
*1030 FILLER_27_177
*1031 FILLER_28_0
*1032 FILLER_28_8
*1033 FILLER_28_16
*1034 FILLER_28_24
*1035 FILLER_28_28
*1036 FILLER_28_31
*1037 FILLER_28_39
*1038 FILLER_28_47
*1039 FILLER_28_55
*1040 FILLER_28_59
*1041 FILLER_28_61
*1042 FILLER_28_69
*1043 FILLER_28_77
*1044 FILLER_28_85
*1045 FILLER_28_89
*1046 FILLER_28_91
*1047 FILLER_28_99
*1048 FILLER_28_107
*1049 FILLER_28_115
*1050 FILLER_28_119
*1051 FILLER_28_121
*1052 FILLER_28_129
*1053 FILLER_28_137
*1054 FILLER_28_145
*1055 FILLER_28_149
*1056 FILLER_28_151
*1057 FILLER_28_159
*1058 FILLER_28_167
*1059 FILLER_28_175

*PORTS
N[0] I
N[1] I
N[2] I
in I
out O
resetb I

*D_NET *1 0.000247193
*CONN
*I *283:D I *D sky130_fd_sc_hd__dfrtp_1
*I *363:X O *D sky130_fd_sc_hd__clkdlybuf4s50_1
*CAP
1 *283:D 8.54912e-05
2 *363:X 8.54912e-05
3 *283:D *283:CLK 7.621e-05
*RES
1 *363:X *283:D 20.8855 
*END

*D_NET *2 0.000390887
*CONN
*I *284:D I *D sky130_fd_sc_hd__dfstp_2
*I *364:X O *D sky130_fd_sc_hd__clkdlybuf4s50_1
*CAP
1 *284:D 8.87189e-05
2 *364:X 8.87189e-05
3 *284:D *284:CLK 0.000213449
*RES
1 *364:X *284:D 21.4401 
*END

*D_NET *3 0.000525942
*CONN
*I *285:D I *D sky130_fd_sc_hd__dfrtp_1
*I *365:X O *D sky130_fd_sc_hd__clkdlybuf4s50_1
*CAP
1 *285:D 0.000187504
2 *365:X 0.000187504
3 *285:D out 7.86847e-05
4 *285:D *285:CLK 7.22498e-05
5 *285:D *363:A 0
6 *285:D *156:19 0
*RES
1 *365:X *285:D 32.2721 
*END

*D_NET *4 0.00110516
*CONN
*I *213:A3 I *D sky130_fd_sc_hd__a31oi_1
*I *260:A I *D sky130_fd_sc_hd__clkinv_1
*I *164:COUT O *D sky130_fd_sc_hd__ha_1
*CAP
1 *213:A3 2.96493e-05
2 *260:A 0.000312086
3 *164:COUT 0.000282436
4 *213:A3 *212:B 0.000163165
5 *213:A3 *43:115 6.95575e-05
6 *260:A *164:B 2.99287e-05
7 *260:A *211:A1 6.96979e-05
8 *260:A *6:10 0.000148637
9 *260:A *52:53 0
10 *260:A *81:14 0
*RES
1 *164:COUT *260:A 33.8642 
2 *260:A *213:A3 20.3309 
*END

*D_NET *5 0.000292343
*CONN
*I *216:A1 I *D sky130_fd_sc_hd__a211oi_1
*I *164:SUM O *D sky130_fd_sc_hd__ha_1
*CAP
1 *216:A1 9.21248e-05
2 *164:SUM 9.21248e-05
3 *216:A1 *217:B1 7.60183e-05
4 *216:A1 *52:33 1.03594e-05
5 *216:A1 *52:53 2.1716e-05
*RES
1 *164:SUM *216:A1 30.1608 
*END

*D_NET *6 0.00310016
*CONN
*I *193:B I *D sky130_fd_sc_hd__and3_1
*I *210:A2 I *D sky130_fd_sc_hd__a21oi_1
*I *165:COUT O *D sky130_fd_sc_hd__ha_1
*CAP
1 *193:B 0.000259618
2 *210:A2 4.60306e-05
3 *165:COUT 0.000711559
4 *6:10 0.00101721
5 *193:B *193:A 0.000140006
6 *193:B *72:60 3.14039e-05
7 *193:B *72:62 9.35753e-06
8 *193:B *134:12 4.28856e-07
9 *193:B *136:128 0.000164325
10 *210:A2 *210:A1 6.36477e-05
11 *210:A2 *100:6 6.08467e-05
12 *6:10 *164:B 2.58616e-05
13 *6:10 *165:A 4.23181e-05
14 *6:10 *165:B 4.89392e-05
15 *6:10 *193:A 2.75449e-05
16 *6:10 *211:A1 6.96979e-05
17 *6:10 *220:A2 2.33934e-05
18 *6:10 *229:A 0.000151573
19 *6:10 *34:12 4.77834e-05
20 *6:10 *72:62 9.98029e-06
21 *260:A *6:10 0.000148637
*RES
1 *165:COUT *6:10 30.5681 
2 *6:10 *210:A2 15.0271 
3 *6:10 *193:B 19.3535 
*END

*D_NET *8 0.000629626
*CONN
*I *168:B I *D sky130_fd_sc_hd__ha_1
*I *166:COUT O *D sky130_fd_sc_hd__ha_1
*CAP
1 *168:B 0.000200429
2 *166:COUT 0.000200429
3 *168:B *166:A 0
4 *168:B *187:B 1.72278e-05
5 *168:B *92:16 0.000211539
*RES
1 *166:COUT *168:B 31.3022 
*END

*D_NET *9 0.00023199
*CONN
*I *204:B I *D sky130_fd_sc_hd__nor2_1
*I *166:SUM O *D sky130_fd_sc_hd__ha_1
*CAP
1 *204:B 8.70781e-05
2 *166:SUM 8.70781e-05
3 *204:B *204:A 5.78334e-05
*RES
1 *166:SUM *204:B 20.9096 
*END

*D_NET *10 0.001386
*CONN
*I *187:B I *D sky130_fd_sc_hd__and2_0
*I *167:COUT O *D sky130_fd_sc_hd__ha_1
*CAP
1 *187:B 0.000329153
2 *167:COUT 0.000329153
3 *187:B *167:A 7.75963e-05
4 *187:B *187:A 0.000149965
5 *187:B *12:12 0.00032387
6 *187:B *92:10 0.000159038
7 *168:B *187:B 1.72278e-05
*RES
1 *167:COUT *187:B 38.2222 
*END

*D_NET *12 0.00365742
*CONN
*I *190:A1 I *D sky130_fd_sc_hd__o211ai_1
*I *189:A1 I *D sky130_fd_sc_hd__o21a_1
*I *197:B I *D sky130_fd_sc_hd__nor4_1
*I *168:COUT O *D sky130_fd_sc_hd__ha_1
*CAP
1 *190:A1 3.74275e-05
2 *189:A1 0
3 *197:B 2.80857e-05
4 *168:COUT 0.00048399
5 *12:23 0.000242592
6 *12:12 0.00071724
7 *190:A1 *189:A2 1.05106e-05
8 *190:A1 *190:A2 0.000169733
9 *190:A1 *60:14 6.96232e-05
10 *197:B *197:A 6.92705e-05
11 *197:B *197:D 0.000171273
12 *12:12 *167:A 0.000196638
13 *12:12 *232:B1 0
14 *12:12 *272:D 3.07848e-05
15 *12:12 *278:SET_B 0
16 *12:12 *278:CLK 1.94615e-05
17 *12:12 *58:10 0.000472916
18 *12:23 *190:A2 1.5962e-05
19 *12:23 *197:D 2.41483e-05
20 *12:23 *58:19 0.000304396
21 *12:23 *60:14 0.000269499
22 *187:B *12:12 0.00032387
*RES
1 *168:COUT *12:12 34.5079 
2 *12:12 *197:B 11.0817 
3 *12:12 *12:23 9.06656 
4 *12:23 *189:A1 9.24915 
5 *12:23 *190:A1 11.6605 
*END

*D_NET *13 0.00248996
*CONN
*I *200:A1 I *D sky130_fd_sc_hd__a21o_1
*I *168:SUM O *D sky130_fd_sc_hd__ha_1
*CAP
1 *200:A1 0.000758374
2 *168:SUM 0.000758374
3 *200:A1 *203:A1 0.000175485
4 *200:A1 *207:A2 0.000343617
5 *200:A1 *207:C1 0.000213725
6 *200:A1 *272:D 0.000167076
7 *200:A1 *273:RESET_B 1.47102e-05
8 *200:A1 *35:10 3.62662e-06
9 *200:A1 *68:44 5.49755e-05
*RES
1 *168:SUM *200:A1 40.8993 
*END

*D_NET *14 0.00153599
*CONN
*I *228:A2 I *D sky130_fd_sc_hd__o21ai_0
*I *226:C I *D sky130_fd_sc_hd__and4_1
*I *169:COUT O *D sky130_fd_sc_hd__ha_1
*CAP
1 *228:A2 0
2 *226:C 0.000120327
3 *169:COUT 0.000282303
4 *14:10 0.00040263
5 *226:C *170:B 7.28994e-06
6 *226:C *227:B 1.03594e-05
7 *226:C *228:B1 1.60111e-05
8 *226:C *231:A2 0.000141677
9 *226:C *16:12 8.36586e-06
10 *226:C *31:10 4.35492e-05
11 *226:C *31:27 4.3122e-05
12 *226:C *107:10 4.13313e-05
13 *14:10 *169:A 0.000211546
14 *14:10 *169:B 0.000207482
*RES
1 *169:COUT *14:10 17.2306 
2 *14:10 *226:C 22.1574 
3 *14:10 *228:A2 9.24915 
*END

*D_NET *15 0.00153357
*CONN
*I *235:D_N I *D sky130_fd_sc_hd__nor4bb_1
*I *169:SUM O *D sky130_fd_sc_hd__ha_1
*CAP
1 *235:D_N 0.000324548
2 *169:SUM 0.000324548
3 *235:D_N *169:B 0.000213238
4 *235:D_N *188:A 0.000165521
5 *235:D_N *188:B_N 4.11909e-05
6 *235:D_N *223:B 0.000111352
7 *235:D_N *59:6 0.000300886
8 *235:D_N *136:155 5.22855e-05
*RES
1 *169:SUM *235:D_N 29.084 
*END

*D_NET *16 0.00105834
*CONN
*I *228:A1 I *D sky130_fd_sc_hd__o21ai_0
*I *188:B_N I *D sky130_fd_sc_hd__nor2b_1
*I *170:COUT O *D sky130_fd_sc_hd__ha_1
*CAP
1 *228:A1 0
2 *188:B_N 0.000159319
3 *170:COUT 0.00014564
4 *16:12 0.000304958
5 *188:B_N *169:B 6.08467e-05
6 *188:B_N *188:A 0.000150832
7 *16:12 *169:A 0
8 *16:12 *170:B 0.000124192
9 *16:12 *239:A 5.56461e-05
10 *16:12 *29:19 7.34948e-06
11 *226:C *16:12 8.36586e-06
12 *235:D_N *188:B_N 4.11909e-05
*RES
1 *170:COUT *16:12 21.7744 
2 *16:12 *188:B_N 14.0477 
3 *16:12 *228:A1 9.24915 
*END

*D_NET *18 0.00119907
*CONN
*I *244:B I *D sky130_fd_sc_hd__nand2_1
*I *171:COUT O *D sky130_fd_sc_hd__ha_1
*CAP
1 *244:B 0.000307562
2 *171:COUT 0.000307562
3 *244:B *242:A 0.000118002
4 *244:B *244:A 5.22654e-06
5 *244:B *274:D 0
6 *244:B *41:85 0
7 *244:B *115:14 0.000457278
8 *244:B *124:6 3.43721e-06
*RES
1 *171:COUT *244:B 37.113 
*END

*D_NET *19 0.00060046
*CONN
*I *249:A I *D sky130_fd_sc_hd__nand2_1
*I *171:SUM O *D sky130_fd_sc_hd__ha_1
*CAP
1 *249:A 9.66846e-05
2 *171:SUM 9.66846e-05
3 *249:A *172:B 2.60765e-05
4 *249:A *250:A1 0.000114584
5 *249:A *250:A2 0.000161234
6 *249:A *250:B1 5.62568e-05
7 *249:A *251:A2 4.89392e-05
*RES
1 *171:SUM *249:A 22.5493 
*END

*D_NET *20 0.00318782
*CONN
*I *245:B I *D sky130_fd_sc_hd__nor2_1
*I *248:B I *D sky130_fd_sc_hd__nand2b_1
*I *172:COUT O *D sky130_fd_sc_hd__ha_1
*CAP
1 *245:B 0.00036398
2 *248:B 0.000266275
3 *172:COUT 0
4 *20:4 0.000630255
5 *245:B *242:A 1.59362e-06
6 *245:B *242:B 0.000140413
7 *245:B *242:D 6.46815e-05
8 *245:B *243:B 2.41274e-06
9 *245:B *245:A 0.00011818
10 *245:B *246:A0 0.000122378
11 *245:B *257:A 4.95892e-05
12 *245:B *28:10 2.33193e-05
13 *245:B *115:14 0
14 *245:B *147:184 0.000299338
15 *245:B *147:199 0.000123973
16 *245:B *154:78 0.000261128
17 *248:B *172:B 2.07365e-05
18 *248:B *248:A_N 3.21123e-05
19 *248:B *254:A 0.000309936
20 *248:B *257:A 0.000109427
21 *248:B *119:14 3.37843e-05
22 *248:B *119:27 8.62474e-06
23 *248:B *154:78 0.000205687
*RES
1 *172:COUT *20:4 9.24915 
2 *20:4 *248:B 26.6974 
3 *20:4 *245:B 32.606 
*END

*D_NET *22 0.00126125
*CONN
*I *258:A I *D sky130_fd_sc_hd__clkinv_1
*I *173:COUT O *D sky130_fd_sc_hd__ha_1
*CAP
1 *258:A 0.000578245
2 *173:COUT 0.000578245
3 *258:A *174:B 5.03748e-06
4 *258:A *209:A0 2.57102e-05
5 *258:A *136:18 7.40084e-05
*RES
1 *173:COUT *258:A 36.2937 
*END

*D_NET *23 0.00148852
*CONN
*I *209:A0 I *D sky130_fd_sc_hd__mux2i_1
*I *173:SUM O *D sky130_fd_sc_hd__ha_1
*CAP
1 *209:A0 0.000577366
2 *173:SUM 0.000577366
3 *209:A0 *42:62 0.000136264
4 *209:A0 *43:80 6.50586e-05
5 *209:A0 *136:18 0.000106756
6 *258:A *209:A0 2.57102e-05
*RES
1 *173:SUM *209:A0 40.4406 
*END

*D_NET *24 0.00140367
*CONN
*I *202:B I *D sky130_fd_sc_hd__nand2_1
*I *174:COUT O *D sky130_fd_sc_hd__ha_1
*CAP
1 *202:B 0.000343786
2 *174:COUT 0.000343786
3 *202:B *174:A 2.58616e-05
4 *202:B *205:A 6.27718e-05
5 *202:B *206:B 6.27782e-05
6 *202:B *207:B1 7.28567e-06
7 *202:B *207:C1 2.60765e-05
8 *202:B *208:B 1.65872e-05
9 *202:B *43:143 5.04829e-06
10 *202:B *68:10 9.29777e-05
11 *202:B *136:18 0.000256285
12 *202:B *136:30 0.000160429
*RES
1 *174:COUT *202:B 37.4564 
*END

*D_NET *25 0.000353799
*CONN
*I *206:B I *D sky130_fd_sc_hd__nand2_1
*I *174:SUM O *D sky130_fd_sc_hd__ha_1
*CAP
1 *206:B 0.00010638
2 *174:SUM 0.00010638
3 *206:B *200:B1 3.00174e-06
4 *206:B *136:18 1.24817e-05
5 *206:B *136:30 6.27782e-05
6 *202:B *206:B 6.27782e-05
*RES
1 *174:SUM *206:B 30.4689 
*END

*D_NET *26 0.003285
*CONN
*I *252:B I *D sky130_fd_sc_hd__nand2_1
*I *172:A I *D sky130_fd_sc_hd__ha_1
*I *257:A I *D sky130_fd_sc_hd__clkinv_1
*I *254:A I *D sky130_fd_sc_hd__nand2_1
*I *261:Q O *D sky130_fd_sc_hd__dfstp_2
*CAP
1 *252:B 0.000104991
2 *172:A 0
3 *257:A 3.08576e-05
4 *254:A 7.94897e-05
5 *261:Q 0.000175005
6 *26:16 0.000375294
7 *26:8 0.000544944
8 *252:B *256:B1 7.38874e-05
9 *252:B *41:85 0
10 *252:B *154:35 0.000141001
11 *254:A *255:B1 1.83992e-05
12 *254:A *119:14 0.000209966
13 *254:A *147:199 8.34426e-05
14 *257:A *147:199 6.27332e-05
15 *26:8 *256:A1 1.65872e-05
16 *26:8 *261:CLK 0.000216458
17 *26:16 *172:B 6.93171e-05
18 *26:16 *250:A2 5.23435e-05
19 *26:16 *256:B1 5.56367e-05
20 *26:16 *262:D 0.000279202
21 *26:16 *154:35 2.95757e-05
22 *26:16 *154:37 0.000179331
23 *26:16 *154:39 1.75816e-05
24 *245:B *257:A 4.95892e-05
25 *248:B *254:A 0.000309936
26 *248:B *257:A 0.000109427
*RES
1 *261:Q *26:8 16.691 
2 *26:8 *26:16 13.4646 
3 *26:16 *254:A 13.8548 
4 *26:16 *257:A 11.0817 
5 *26:16 *172:A 9.24915 
6 *26:8 *252:B 17.135 
*END

*D_NET *27 0.00254147
*CONN
*I *247:B I *D sky130_fd_sc_hd__nand2_1
*I *253:A I *D sky130_fd_sc_hd__clkinv_1
*I *242:C I *D sky130_fd_sc_hd__nor4_1
*I *262:Q O *D sky130_fd_sc_hd__dfrtp_1
*CAP
1 *247:B 0.000221313
2 *253:A 0
3 *242:C 0.000174439
4 *262:Q 0.000256619
5 *27:27 0.000303691
6 *27:16 0.000513436
7 *242:C *154:78 0.00025527
8 *247:B *251:B1 3.00829e-05
9 *247:B *41:57 0.000154145
10 *247:B *41:81 1.24255e-05
11 *247:B *115:14 0.000132802
12 *27:16 *243:A 8.43687e-05
13 *27:16 *264:D 0.000136594
14 *27:16 *279:RESET_B 0
15 *27:16 *115:14 0.000122978
16 *27:27 *264:D 8.36586e-06
17 *27:27 *115:14 0.000134943
*RES
1 *262:Q *27:16 28.8003 
2 *27:16 *242:C 16.691 
3 *27:16 *27:27 2.6625 
4 *27:27 *253:A 13.7491 
5 *27:27 *247:B 19.9322 
*END

*D_NET *28 0.003036
*CONN
*I *242:B I *D sky130_fd_sc_hd__nor4_1
*I *248:A_N I *D sky130_fd_sc_hd__nand2b_1
*I *245:A I *D sky130_fd_sc_hd__nor2_1
*I *246:A1 I *D sky130_fd_sc_hd__mux2_1
*I *263:Q O *D sky130_fd_sc_hd__dfrtp_1
*CAP
1 *242:B 0.000318791
2 *248:A_N 0.000420256
3 *245:A 0.000147774