*SPEF "ieee 1481-1999"
*DESIGN "user_project_wrapper"
*DATE "23:45:08 Sunday March 22, 2026"
*VENDOR "The OpenROAD Project"
*PROGRAM "OpenROAD"
*VERSION "v2.0-28075-g0f99689f45"
*DESIGN_FLOW "NAME_SCOPE LOCAL" "PIN_CAP NONE"
*DIVIDER /
*DELIMITER :
*BUS_DELIMITER []
*T_UNIT 1 NS
*C_UNIT 1 PF
*R_UNIT 1 OHM
*L_UNIT 1 HENRY

*NAME_MAP
*2 _001_
*3 _002_
*4 _003_
*5 _004_
*6 _005_
*7 _006_
*8 _007_
*9 _008_
*10 _009_
*11 _010_
*12 _011_
*13 _012_
*14 _013_
*15 _014_
*16 _015_
*17 _016_
*18 _017_
*19 _018_
*20 _019_
*21 _020_
*22 _021_
*23 _022_
*24 _023_
*25 _024_
*26 _025_
*27 _026_
*28 _027_
*29 _028_
*30 _029_
*31 _030_
*32 _031_
*33 _032_
*34 _033_
*35 _034_
*36 _035_
*37 _036_
*38 _037_
*39 _038_
*40 _039_
*41 _040_
*42 _041_
*43 _042_
*44 _043_
*45 _044_
*46 _045_
*47 _046_
*48 _047_
*49 _048_
*50 _049_
*51 _050_
*52 _051_
*53 _052_
*54 _053_
*55 _054_
*56 _055_
*57 _056_
*58 _057_
*59 _058_
*60 _059_
*61 _060_
*62 _061_
*63 _062_
*64 _063_
*65 _064_
*66 _065_
*67 _066_
*68 _067_
*69 _068_
*70 _069_
*71 _070_
*72 _071_
*73 _072_
*74 _073_
*75 _074_
*76 _075_
*77 _076_
*78 _077_
*79 _078_
*80 _079_
*81 _080_
*82 _081_
*83 _082_
*84 _083_
*85 _084_
*86 _085_
*87 _086_
*88 _087_
*89 _088_
*90 _089_
*91 _090_
*92 _091_
*93 _092_
*94 _093_
*95 _094_
*96 _095_
*97 _096_
*98 _097_
*99 _098_
*100 _099_
*101 _100_
*102 _101_
*103 _102_
*104 _103_
*105 _104_
*106 _105_
*107 _106_
*108 _107_
*109 _108_
*110 _109_
*111 _110_
*112 _111_
*113 _112_
*114 _113_
*115 _114_
*116 _115_
*117 _116_
*118 _117_
*119 _118_
*120 _119_
*121 _120_
*122 _121_
*123 _122_
*124 _123_
*125 _124_
*126 _125_
*127 _126_
*128 _127_
*129 _128_
*130 _129_
*131 _130_
*132 _131_
*133 _132_
*134 _133_
*135 _134_
*136 _135_
*137 _136_
*138 _137_
*139 _138_
*140 _139_
*141 _140_
*142 _141_
*143 _142_
*144 _143_
*145 _144_
*146 _145_
*147 _146_
*148 _147_
*149 _148_
*150 _149_
*151 _150_
*152 _151_
*153 _152_
*154 _153_
*155 _154_
*156 _155_
*157 _156_
*158 _157_
*159 _158_
*160 _159_
*161 _160_
*162 _161_
*163 _162_
*164 _163_
*165 _164_
*166 _165_
*167 _166_
*168 _167_
*169 _168_
*170 _169_
*171 _170_
*172 _171_
*173 _172_
*174 _173_
*175 _174_
*176 _175_
*177 _176_
*178 _177_
*179 _178_
*180 _179_
*181 _180_
*182 _181_
*183 _182_
*184 _183_
*185 _184_
*186 _185_
*187 _186_
*188 _187_
*189 _188_
*190 _189_
*191 _190_
*192 _191_
*193 _192_
*194 _193_
*195 _194_
*196 _195_
*197 _196_
*198 _197_
*199 _198_
*200 _199_
*201 _200_
*202 _201_
*203 _202_
*204 _203_
*205 _204_
*206 _205_
*207 _206_
*208 _207_
*209 _208_
*210 _209_
*211 _210_
*212 _211_
*213 _212_
*214 _213_
*215 _214_
*216 _215_
*217 _216_
*218 _217_
*219 _218_
*220 _219_
*221 _220_
*222 _221_
*223 _222_
*224 _223_
*225 _224_
*226 _225_
*227 _226_
*228 _227_
*229 _228_
*230 _229_
*231 _230_
*232 _231_
*233 _232_
*234 _233_
*235 _234_
*236 _235_
*237 _236_
*238 _237_
*239 _238_
*240 _239_
*241 _240_
*242 _241_
*243 _242_
*244 _243_
*245 _244_
*246 _245_
*247 _246_
*248 _247_
*249 _248_
*250 _249_
*251 _250_
*252 _251_
*253 _252_
*254 _253_
*255 _254_
*256 _255_
*257 analog_io[0]
*258 analog_io[10]
*259 analog_io[11]
*260 analog_io[12]
*261 analog_io[13]
*262 analog_io[14]
*263 analog_io[15]
*264 analog_io[16]
*265 analog_io[17]
*266 analog_io[18]
*267 analog_io[19]
*268 analog_io[1]
*269 analog_io[20]
*270 analog_io[21]
*271 analog_io[22]
*272 analog_io[23]
*273 analog_io[24]
*274 analog_io[25]
*275 analog_io[26]
*276 analog_io[27]
*277 analog_io[28]
*278 analog_io[2]
*279 analog_io[3]
*280 analog_io[4]
*281 analog_io[5]
*282 analog_io[6]
*283 analog_io[7]
*284 analog_io[8]
*285 analog_io[9]
*286 debug\.wbs_ack_o
*287 io_in[0]
*288 io_in[10]
*289 io_in[11]
*290 io_in[12]
*291 io_in[13]
*292 io_in[14]
*293 io_in[15]
*294 io_in[16]
*295 io_in[17]
*296 io_in[18]
*297 io_in[19]
*298 io_in[1]
*299 io_in[20]
*300 io_in[21]
*301 io_in[22]
*302 io_in[23]
*303 io_in[24]
*304 io_in[25]
*305 io_in[26]
*306 io_in[27]
*307 io_in[28]
*308 io_in[29]
*309 io_in[2]
*310 io_in[30]
*311 io_in[31]
*312 io_in[32]
*313 io_in[33]
*314 io_in[34]
*315 io_in[35]
*316 io_in[36]
*317 io_in[37]
*318 io_in[3]
*319 io_in[4]
*320 io_in[5]
*321 io_in[6]
*322 io_in[7]
*323 io_in[8]
*324 io_in[9]
*325 io_oeb[0]
*326 io_oeb[10]
*327 io_oeb[11]
*328 io_oeb[12]
*329 io_oeb[13]
*330 io_oeb[14]
*331 io_oeb[15]
*332 io_oeb[16]
*333 io_oeb[17]
*334 io_oeb[18]
*335 io_oeb[19]
*336 io_oeb[1]
*337 io_oeb[20]
*338 io_oeb[21]
*339 io_oeb[22]
*340 io_oeb[23]
*341 io_oeb[24]
*342 io_oeb[25]
*343 io_oeb[26]
*344 io_oeb[27]
*345 io_oeb[28]
*346 io_oeb[29]
*347 io_oeb[2]
*348 io_oeb[30]
*349 io_oeb[31]
*350 io_oeb[32]
*351 io_oeb[33]
*352 io_oeb[34]
*353 io_oeb[35]
*354 io_oeb[36]
*355 io_oeb[37]
*356 io_oeb[3]
*357 io_oeb[4]
*358 io_oeb[5]
*359 io_oeb[6]
*360 io_oeb[7]
*361 io_oeb[8]
*362 io_oeb[9]
*401 la_data_in[0]
*402 la_data_in[100]
*403 la_data_in[101]
*404 la_data_in[102]
*405 la_data_in[103]
*406 la_data_in[104]
*407 la_data_in[105]
*408 la_data_in[106]
*409 la_data_in[107]
*410 la_data_in[108]
*411 la_data_in[109]
*412 la_data_in[10]
*413 la_data_in[110]
*414 la_data_in[111]
*415 la_data_in[112]
*416 la_data_in[113]
*417 la_data_in[114]
*418 la_data_in[115]
*419 la_data_in[116]
*420 la_data_in[117]
*421 la_data_in[118]
*422 la_data_in[119]
*423 la_data_in[11]
*424 la_data_in[120]
*425 la_data_in[121]
*426 la_data_in[122]
*427 la_data_in[123]
*428 la_data_in[124]
*429 la_data_in[125]
*430 la_data_in[126]
*431 la_data_in[127]
*432 la_data_in[12]
*433 la_data_in[13]
*434 la_data_in[14]
*435 la_data_in[15]
*436 la_data_in[16]
*437 la_data_in[17]
*438 la_data_in[18]
*439 la_data_in[19]
*440 la_data_in[1]
*441 la_data_in[20]
*442 la_data_in[21]
*443 la_data_in[22]
*444 la_data_in[23]
*445 la_data_in[24]
*446 la_data_in[25]
*447 la_data_in[26]
*448 la_data_in[27]
*449 la_data_in[28]
*450 la_data_in[29]
*451 la_data_in[2]
*452 la_data_in[30]
*453 la_data_in[31]
*454 la_data_in[32]
*455 la_data_in[33]
*456 la_data_in[34]
*457 la_data_in[35]
*458 la_data_in[36]
*459 la_data_in[37]
*460 la_data_in[38]
*461 la_data_in[39]
*462 la_data_in[3]
*463 la_data_in[40]
*464 la_data_in[41]
*465 la_data_in[42]
*466 la_data_in[43]
*467 la_data_in[44]
*468 la_data_in[45]
*469 la_data_in[46]
*470 la_data_in[47]
*471 la_data_in[48]
*472 la_data_in[49]
*473 la_data_in[4]
*474 la_data_in[50]
*475 la_data_in[51]
*476 la_data_in[52]
*477 la_data_in[53]
*478 la_data_in[54]
*479 la_data_in[55]
*480 la_data_in[56]
*481 la_data_in[57]
*482 la_data_in[58]
*483 la_data_in[59]
*484 la_data_in[5]
*485 la_data_in[60]
*486 la_data_in[61]
*487 la_data_in[62]
*488 la_data_in[63]
*489 la_data_in[64]
*490 la_data_in[65]
*491 la_data_in[66]
*492 la_data_in[67]
*493 la_data_in[68]
*494 la_data_in[69]
*495 la_data_in[6]
*496 la_data_in[70]
*497 la_data_in[71]
*498 la_data_in[72]
*499 la_data_in[73]
*500 la_data_in[74]
*501 la_data_in[75]
*502 la_data_in[76]
*503 la_data_in[77]
*504 la_data_in[78]
*505 la_data_in[79]
*506 la_data_in[7]
*507 la_data_in[80]
*508 la_data_in[81]
*509 la_data_in[82]
*510 la_data_in[83]
*511 la_data_in[84]
*512 la_data_in[85]
*513 la_data_in[86]
*514 la_data_in[87]
*515 la_data_in[88]
*516 la_data_in[89]
*517 la_data_in[8]
*518 la_data_in[90]
*519 la_data_in[91]
*520 la_data_in[92]
*521 la_data_in[93]
*522 la_data_in[94]
*523 la_data_in[95]
*524 la_data_in[96]
*525 la_data_in[97]
*526 la_data_in[98]
*527 la_data_in[99]
*528 la_data_in[9]
*529 la_data_out[0]
*530 la_data_out[100]
*531 la_data_out[101]
*532 la_data_out[102]
*533 la_data_out[103]
*534 la_data_out[104]
*535 la_data_out[105]
*536 la_data_out[106]
*537 la_data_out[107]
*538 la_data_out[108]
*539 la_data_out[109]
*540 la_data_out[10]
*541 la_data_out[110]
*542 la_data_out[111]
*543 la_data_out[112]
*544 la_data_out[113]
*545 la_data_out[114]
*546 la_data_out[115]
*547 la_data_out[116]
*548 la_data_out[117]
*549 la_data_out[118]
*550 la_data_out[119]
*551 la_data_out[11]
*552 la_data_out[120]
*553 la_data_out[121]
*554 la_data_out[122]
*555 la_data_out[123]
*556 la_data_out[124]
*557 la_data_out[125]
*558 la_data_out[126]
*559 la_data_out[127]
*560 la_data_out[12]
*561 la_data_out[13]
*562 la_data_out[14]
*563 la_data_out[15]
*564 la_data_out[16]
*565 la_data_out[17]
*566 la_data_out[18]
*567 la_data_out[19]
*568 la_data_out[1]
*569 la_data_out[20]
*570 la_data_out[21]
*571 la_data_out[22]
*572 la_data_out[23]
*573 la_data_out[24]
*574 la_data_out[25]
*575 la_data_out[26]
*576 la_data_out[27]
*577 la_data_out[28]
*578 la_data_out[29]
*579 la_data_out[2]
*580 la_data_out[30]
*581 la_data_out[31]
*582 la_data_out[32]
*583 la_data_out[33]
*584 la_data_out[34]
*585 la_data_out[35]
*586 la_data_out[36]
*587 la_data_out[37]
*588 la_data_out[38]
*589 la_data_out[39]
*590 la_data_out[3]
*591 la_data_out[40]
*592 la_data_out[41]
*593 la_data_out[42]
*594 la_data_out[43]
*595 la_data_out[44]
*596 la_data_out[45]
*597 la_data_out[46]
*598 la_data_out[47]
*599 la_data_out[48]
*600 la_data_out[49]
*601 la_data_out[4]
*602 la_data_out[50]
*603 la_data_out[51]
*604 la_data_out[52]
*605 la_data_out[53]
*606 la_data_out[54]
*607 la_data_out[55]
*608 la_data_out[56]
*609 la_data_out[57]
*610 la_data_out[58]
*611 la_data_out[59]
*612 la_data_out[5]
*613 la_data_out[60]
*614 la_data_out[61]
*615 la_data_out[62]
*616 la_data_out[63]
*617 la_data_out[64]
*618 la_data_out[65]
*619 la_data_out[66]
*620 la_data_out[67]
*621 la_data_out[68]
*622 la_data_out[69]
*623 la_data_out[6]
*624 la_data_out[70]
*625 la_data_out[71]
*626 la_data_out[72]
*627 la_data_out[73]
*628 la_data_out[74]
*629 la_data_out[75]
*630 la_data_out[76]
*631 la_data_out[77]
*632 la_data_out[78]
*633 la_data_out[79]
*634 la_data_out[7]
*635 la_data_out[80]
*636 la_data_out[81]
*637 la_data_out[82]
*638 la_data_out[83]
*639 la_data_out[84]
*640 la_data_out[85]
*641 la_data_out[86]
*642 la_data_out[87]
*643 la_data_out[88]
*644 la_data_out[89]
*645 la_data_out[8]
*646 la_data_out[90]
*647 la_data_out[91]
*648 la_data_out[92]
*649 la_data_out[93]
*650 la_data_out[94]
*651 la_data_out[95]
*652 la_data_out[96]
*653 la_data_out[97]
*654 la_data_out[98]
*655 la_data_out[99]
*656 la_data_out[9]
*657 la_oenb[0]
*658 la_oenb[100]
*659 la_oenb[101]
*660 la_oenb[102]
*661 la_oenb[103]
*662 la_oenb[104]
*663 la_oenb[105]
*664 la_oenb[106]
*665 la_oenb[107]
*666 la_oenb[108]
*667 la_oenb[109]
*668 la_oenb[10]
*669 la_oenb[110]
*670 la_oenb[111]
*671 la_oenb[112]
*672 la_oenb[113]
*673 la_oenb[114]
*674 la_oenb[115]
*675 la_oenb[116]
*676 la_oenb[117]
*677 la_oenb[118]
*678 la_oenb[119]
*679 la_oenb[11]
*680 la_oenb[120]
*681 la_oenb[121]
*682 la_oenb[122]
*683 la_oenb[123]
*684 la_oenb[124]
*685 la_oenb[125]
*686 la_oenb[126]
*687 la_oenb[127]
*688 la_oenb[12]
*689 la_oenb[13]
*690 la_oenb[14]
*691 la_oenb[15]
*692 la_oenb[16]
*693 la_oenb[17]
*694 la_oenb[18]
*695 la_oenb[19]
*696 la_oenb[1]
*697 la_oenb[20]
*698 la_oenb[21]
*699 la_oenb[22]
*700 la_oenb[23]
*701 la_oenb[24]
*702 la_oenb[25]
*703 la_oenb[26]
*704 la_oenb[27]
*705 la_oenb[28]
*706 la_oenb[29]
*707 la_oenb[2]
*708 la_oenb[30]
*709 la_oenb[31]
*710 la_oenb[32]
*711 la_oenb[33]
*712 la_oenb[34]
*713 la_oenb[35]
*714 la_oenb[36]
*715 la_oenb[37]
*716 la_oenb[38]
*717 la_oenb[39]
*718 la_oenb[3]
*719 la_oenb[40]
*720 la_oenb[41]
*721 la_oenb[42]
*722 la_oenb[43]
*723 la_oenb[44]
*724 la_oenb[45]
*725 la_oenb[46]
*726 la_oenb[47]
*727 la_oenb[48]
*728 la_oenb[49]
*729 la_oenb[4]
*730 la_oenb[50]
*731 la_oenb[51]
*732 la_oenb[52]
*733 la_oenb[53]
*734 la_oenb[54]
*735 la_oenb[55]
*736 la_oenb[56]
*737 la_oenb[57]
*738 la_oenb[58]
*739 la_oenb[59]
*740 la_oenb[5]
*741 la_oenb[60]
*742 la_oenb[61]
*743 la_oenb[62]
*744 la_oenb[63]
*745 la_oenb[64]
*746 la_oenb[65]
*747 la_oenb[66]
*748 la_oenb[67]
*749 la_oenb[68]
*750 la_oenb[69]
*751 la_oenb[6]
*752 la_oenb[70]
*753 la_oenb[71]
*754 la_oenb[72]
*755 la_oenb[73]
*756 la_oenb[74]
*757 la_oenb[75]
*758 la_oenb[76]
*759 la_oenb[77]
*760 la_oenb[78]
*761 la_oenb[79]
*762 la_oenb[7]
*763 la_oenb[80]
*764 la_oenb[81]
*765 la_oenb[82]
*766 la_oenb[83]
*767 la_oenb[84]
*768 la_oenb[85]
*769 la_oenb[86]
*770 la_oenb[87]
*771 la_oenb[88]
*772 la_oenb[89]
*773 la_oenb[8]
*774 la_oenb[90]
*775 la_oenb[91]
*776 la_oenb[92]
*777 la_oenb[93]
*778 la_oenb[94]
*779 la_oenb[95]
*780 la_oenb[96]
*781 la_oenb[97]
*782 la_oenb[98]
*783 la_oenb[99]
*784 la_oenb[9]
*785 user_clock2
*786 user_irq[0]
*787 user_irq[1]
*788 user_irq[2]
*789 wb_clk_i
*790 net169
*791 net241
*792 net170
*793 net171
*794 net172
*795 net173
*796 net174
*797 net175
*798 net176
*799 net177
*800 net178
*801 net179
*802 net180
*803 net181
*804 net182
*805 net183
*806 net184
*807 net185
*808 net186
*809 net187
*810 net188
*811 net189
*812 net190
*813 net191
*814 net192
*815 net193
*816 net194
*817 net195
*818 net196
*819 net197
*820 net198
*821 net199
*822 net200
*823 net201
*824 net202
*825 net203
*826 net204
*827 net205
*828 net206
*829 net207
*830 net208
*831 net209
*832 net210
*833 net211
*834 net212
*835 net213
*836 net214
*837 net215
*838 net216
*839 net217
*840 net218
*841 net219
*842 net220
*843 net221
*844 net222
*845 net223
*846 net224
*847 net225
*848 net226
*849 net227
*850 net228
*851 net229
*852 net230
*853 net231
*854 net232
*855 net233
*856 net234
*857 net242
*858 net243
*859 net244
*860 net245
*861 net246
*862 net247
*863 net248
*864 net249
*865 net250
*866 net251
*867 net252
*868 net253
*869 net254
*870 net255
*871 net256
*872 net257
*873 net258
*874 net259
*875 net260
*876 net261
*877 net262
*878 net263
*879 net264
*880 net265
*881 net266
*882 net267
*883 net268
*884 net269
*885 net270
*886 net271
*887 net272
*888 net273
*889 net235
*890 net236
*891 net237
*892 net238
*893 net239
*894 net240
*942 clknet_3_7__leaf_wb_clk_i
*943 clknet_3_6__leaf_wb_clk_i
*944 clknet_3_5__leaf_wb_clk_i
*945 clknet_3_4__leaf_wb_clk_i
*946 clknet_3_3__leaf_wb_clk_i
*947 clknet_3_2__leaf_wb_clk_i
*948 clknet_3_1__leaf_wb_clk_i
*949 clknet_3_0__leaf_wb_clk_i
*950 net287
*951 net286
*952 net285
*953 net284
*954 clknet_0_wb_clk_i
*955 net283
*956 net288
*957 wbs_dat_o[9]
*958 wbs_dat_o[8]
*959 wbs_dat_o[7]
*960 wbs_dat_o[6]
*961 wbs_dat_o[5]
*962 wbs_dat_o[4]
*963 wbs_dat_o[3]
*964 wbs_dat_o[31]
*965 wbs_dat_o[30]
*966 wbs_dat_o[2]
*967 wbs_dat_o[29]
*968 wbs_dat_o[28]
*969 wbs_dat_o[27]
*970 wbs_dat_o[26]
*971 wbs_dat_o[25]
*972 wbs_dat_o[24]
*973 wbs_dat_o[23]
*974 wbs_dat_o[22]
*975 wbs_dat_o[21]
*976 wbs_dat_o[20]
*977 wbs_dat_o[1]
*978 wbs_dat_o[19]
*979 wbs_dat_o[18]
*980 wbs_dat_o[17]
*981 wbs_dat_o[16]
*982 wbs_dat_o[15]
*983 wbs_dat_o[14]
*984 wbs_dat_o[13]
*985 wbs_dat_o[12]
*986 wbs_dat_o[11]
*987 wbs_dat_o[10]
*988 wbs_dat_o[0]
*989 wbs_ack_o
*990 wbs_we_i
*991 wbs_stb_i
*992 wbs_sel_i[3]
*993 wbs_sel_i[2]
*994 wbs_sel_i[1]
*995 wbs_sel_i[0]
*996 wbs_dat_i[9]
*997 wbs_dat_i[8]
*998 wbs_dat_i[7]
*999 wbs_dat_i[6]
*1000 wbs_dat_i[5]
*1001 wbs_dat_i[4]
*1002 wbs_dat_i[3]
*1003 wbs_dat_i[31]
*1004 wbs_dat_i[30]
*1005 wbs_dat_i[2]
*1006 wbs_dat_i[29]
*1007 wbs_dat_i[28]
*1008 wbs_dat_i[27]
*1009 wbs_dat_i[26]
*1010 wbs_dat_i[25]
*1011 wbs_dat_i[24]
*1012 wbs_dat_i[23]
*1013 wbs_dat_i[22]
*1014 wbs_dat_i[21]
*1015 wbs_dat_i[20]
*1016 wbs_dat_i[1]
*1017 wbs_dat_i[19]
*1018 wbs_dat_i[18]
*1019 wbs_dat_i[17]
*1020 wbs_dat_i[16]
*1021 wbs_dat_i[15]
*1022 wbs_dat_i[14]
*1023 wbs_dat_i[13]
*1024 wbs_dat_i[12]
*1025 wbs_dat_i[11]
*1026 wbs_dat_i[10]
*1027 wbs_dat_i[0]
*1028 wbs_cyc_i
*1029 wbs_adr_i[9]
*1030 wbs_adr_i[8]
*1031 wbs_adr_i[7]
*1032 wbs_adr_i[6]
*1033 wbs_adr_i[5]
*1034 wbs_adr_i[4]
*1035 wbs_adr_i[3]
*1036 wbs_adr_i[31]
*1037 wbs_adr_i[30]
*1038 wbs_adr_i[2]
*1039 wbs_adr_i[29]
*1040 wbs_adr_i[28]
*1041 wbs_adr_i[27]
*1042 wbs_adr_i[26]
*1043 wbs_adr_i[25]
*1044 wbs_adr_i[24]
*1045 wbs_adr_i[23]
*1046 wbs_adr_i[22]
*1047 wbs_adr_i[21]
*1048 wbs_adr_i[20]
*1049 wbs_adr_i[1]
*1050 wbs_adr_i[19]
*1051 wbs_adr_i[18]
*1052 wbs_adr_i[17]
*1053 wbs_adr_i[16]
*1054 wbs_adr_i[15]
*1055 wbs_adr_i[14]
*1056 wbs_adr_i[13]
*1057 wbs_adr_i[12]
*1058 wbs_adr_i[11]
*1059 wbs_adr_i[10]
*1060 wbs_adr_i[0]
*1061 wb_rst_i
*1062 TAP_TAPCELL_ROW_33_207
*1063 TAP_TAPCELL_ROW_33_206
*1064 TAP_TAPCELL_ROW_33_205
*1065 TAP_TAPCELL_ROW_33_204
*1066 TAP_TAPCELL_ROW_32_203
*1067 TAP_TAPCELL_ROW_32_202
*1068 TAP_TAPCELL_ROW_32_201
*1069 TAP_TAPCELL_ROW_32_200
*1070 TAP_TAPCELL_ROW_32_199
*1071 TAP_TAPCELL_ROW_32_198
*1072 TAP_TAPCELL_ROW_31_197
*1073 TAP_TAPCELL_ROW_31_196
*1074 TAP_TAPCELL_ROW_31_195
*1075 TAP_TAPCELL_ROW_31_194
*1076 TAP_TAPCELL_ROW_31_193
*1077 TAP_TAPCELL_ROW_31_192
*1078 TAP_TAPCELL_ROW_30_191
*1079 TAP_TAPCELL_ROW_30_190
*1080 TAP_TAPCELL_ROW_30_189
*1081 TAP_TAPCELL_ROW_30_188
*1082 TAP_TAPCELL_ROW_30_187
*1083 TAP_TAPCELL_ROW_30_186
*1084 TAP_TAPCELL_ROW_29_185
*1085 TAP_TAPCELL_ROW_29_184
*1086 TAP_TAPCELL_ROW_29_183
*1087 TAP_TAPCELL_ROW_29_182
*1088 TAP_TAPCELL_ROW_29_181
*1089 TAP_TAPCELL_ROW_29_180
*1090 TAP_TAPCELL_ROW_28_179
*1091 TAP_TAPCELL_ROW_28_178
*1092 TAP_TAPCELL_ROW_28_177
*1093 TAP_TAPCELL_ROW_28_176
*1094 TAP_TAPCELL_ROW_28_175
*1095 TAP_TAPCELL_ROW_28_174
*1096 TAP_TAPCELL_ROW_27_173
*1097 TAP_TAPCELL_ROW_27_172
*1098 TAP_TAPCELL_ROW_27_171
*1099 TAP_TAPCELL_ROW_27_170
*1100 TAP_TAPCELL_ROW_27_169
*1101 TAP_TAPCELL_ROW_27_168
*1102 TAP_TAPCELL_ROW_26_167
*1103 TAP_TAPCELL_ROW_26_166
*1104 TAP_TAPCELL_ROW_26_165
*1105 TAP_TAPCELL_ROW_26_164
*1106 TAP_TAPCELL_ROW_26_163
*1107 TAP_TAPCELL_ROW_26_162
*1108 TAP_TAPCELL_ROW_25_161
*1109 TAP_TAPCELL_ROW_25_160
*1110 TAP_TAPCELL_ROW_25_159
*1111 TAP_TAPCELL_ROW_25_158
*1112 TAP_TAPCELL_ROW_25_157
*1113 TAP_TAPCELL_ROW_25_156
*1114 TAP_TAPCELL_ROW_24_155
*1115 TAP_TAPCELL_ROW_24_154
*1116 TAP_TAPCELL_ROW_24_153
*1117 TAP_TAPCELL_ROW_24_152
*1118 TAP_TAPCELL_ROW_24_151
*1119 TAP_TAPCELL_ROW_24_150
*1120 TAP_TAPCELL_ROW_23_149
*1121 TAP_TAPCELL_ROW_23_148
*1122 TAP_TAPCELL_ROW_23_147
*1123 TAP_TAPCELL_ROW_23_146
*1124 TAP_TAPCELL_ROW_23_145
*1125 TAP_TAPCELL_ROW_23_144
*1126 TAP_TAPCELL_ROW_22_143
*1127 TAP_TAPCELL_ROW_22_142
*1128 TAP_TAPCELL_ROW_22_141
*1129 TAP_TAPCELL_ROW_22_140
*1130 TAP_TAPCELL_ROW_22_139
*1131 TAP_TAPCELL_ROW_22_138
*1132 TAP_TAPCELL_ROW_21_137
*1133 TAP_TAPCELL_ROW_21_136
*1134 TAP_TAPCELL_ROW_21_135
*1135 TAP_TAPCELL_ROW_21_134
*1136 TAP_TAPCELL_ROW_21_133
*1137 TAP_TAPCELL_ROW_21_132
*1138 TAP_TAPCELL_ROW_20_131
*1139 TAP_TAPCELL_ROW_20_130
*1140 TAP_TAPCELL_ROW_20_129
*1141 TAP_TAPCELL_ROW_20_128
*1142 TAP_TAPCELL_ROW_20_127
*1143 TAP_TAPCELL_ROW_20_126
*1144 TAP_TAPCELL_ROW_19_125
*1145 TAP_TAPCELL_ROW_19_124
*1146 TAP_TAPCELL_ROW_19_123
*1147 TAP_TAPCELL_ROW_19_122
*1148 TAP_TAPCELL_ROW_19_121
*1149 TAP_TAPCELL_ROW_19_120
*1150 TAP_TAPCELL_ROW_18_119
*1151 TAP_TAPCELL_ROW_18_118
*1152 TAP_TAPCELL_ROW_18_117
*1153 TAP_TAPCELL_ROW_18_116
*1154 TAP_TAPCELL_ROW_18_115
*1155 TAP_TAPCELL_ROW_18_114
*1156 TAP_TAPCELL_ROW_17_113
*1157 TAP_TAPCELL_ROW_17_112
*1158 TAP_TAPCELL_ROW_17_111
*1159 TAP_TAPCELL_ROW_17_110
*1160 TAP_TAPCELL_ROW_17_109
*1161 TAP_TAPCELL_ROW_17_108
*1162 TAP_TAPCELL_ROW_16_107
*1163 TAP_TAPCELL_ROW_16_106
*1164 TAP_TAPCELL_ROW_16_105
*1165 TAP_TAPCELL_ROW_16_104
*1166 TAP_TAPCELL_ROW_16_103
*1167 TAP_TAPCELL_ROW_16_102
*1168 TAP_TAPCELL_ROW_15_101
*1169 TAP_TAPCELL_ROW_15_100
*1170 TAP_TAPCELL_ROW_15_99
*1171 TAP_TAPCELL_ROW_15_98
*1172 TAP_TAPCELL_ROW_15_97
*1173 TAP_TAPCELL_ROW_15_96
*1174 TAP_TAPCELL_ROW_14_95
*1175 TAP_TAPCELL_ROW_14_94
*1176 TAP_TAPCELL_ROW_14_93
*1177 TAP_TAPCELL_ROW_14_92
*1178 TAP_TAPCELL_ROW_14_91
*1179 TAP_TAPCELL_ROW_14_90
*1180 TAP_TAPCELL_ROW_13_89
*1181 TAP_TAPCELL_ROW_13_88
*1182 TAP_TAPCELL_ROW_13_87
*1183 TAP_TAPCELL_ROW_13_86
*1184 TAP_TAPCELL_ROW_13_85
*1185 TAP_TAPCELL_ROW_13_84
*1186 TAP_TAPCELL_ROW_12_83
*1187 TAP_TAPCELL_ROW_12_82
*1188 TAP_TAPCELL_ROW_12_81
*1189 TAP_TAPCELL_ROW_12_80
*1190 TAP_TAPCELL_ROW_12_79
*1191 TAP_TAPCELL_ROW_12_78
*1192 TAP_TAPCELL_ROW_11_77
*1193 TAP_TAPCELL_ROW_11_76
*1194 TAP_TAPCELL_ROW_11_75
*1195 TAP_TAPCELL_ROW_11_74
*1196 TAP_TAPCELL_ROW_11_73
*1197 TAP_TAPCELL_ROW_11_72
*1198 TAP_TAPCELL_ROW_10_71
*1199 TAP_TAPCELL_ROW_10_70
*1200 TAP_TAPCELL_ROW_10_69
*1201 TAP_TAPCELL_ROW_10_68
*1202 TAP_TAPCELL_ROW_10_67
*1203 TAP_TAPCELL_ROW_10_66
*1204 TAP_TAPCELL_ROW_9_65
*1205 TAP_TAPCELL_ROW_9_64
*1206 TAP_TAPCELL_ROW_9_63
*1207 TAP_TAPCELL_ROW_9_62
*1208 TAP_TAPCELL_ROW_9_61
*1209 TAP_TAPCELL_ROW_9_60
*1210 TAP_TAPCELL_ROW_8_59
*1211 TAP_TAPCELL_ROW_8_58
*1212 TAP_TAPCELL_ROW_8_57
*1213 TAP_TAPCELL_ROW_8_56
*1214 TAP_TAPCELL_ROW_8_55
*1215 TAP_TAPCELL_ROW_8_54
*1216 TAP_TAPCELL_ROW_7_53
*1217 TAP_TAPCELL_ROW_7_52
*1218 TAP_TAPCELL_ROW_7_51
*1219 TAP_TAPCELL_ROW_7_50
*1220 TAP_TAPCELL_ROW_7_49
*1221 TAP_TAPCELL_ROW_7_48
*1222 TAP_TAPCELL_ROW_6_47
*1223 TAP_TAPCELL_ROW_6_46
*1224 TAP_TAPCELL_ROW_6_45
*1225 TAP_TAPCELL_ROW_6_44
*1226 TAP_TAPCELL_ROW_6_43
*1227 TAP_TAPCELL_ROW_6_42
*1228 TAP_TAPCELL_ROW_5_41
*1229 TAP_TAPCELL_ROW_5_40
*1230 TAP_TAPCELL_ROW_5_39
*1231 TAP_TAPCELL_ROW_5_38
*1232 TAP_TAPCELL_ROW_5_37
*1233 TAP_TAPCELL_ROW_5_36
*1234 TAP_TAPCELL_ROW_4_35
*1235 TAP_TAPCELL_ROW_4_34
*1236 TAP_TAPCELL_ROW_4_33
*1237 TAP_TAPCELL_ROW_4_32
*1238 TAP_TAPCELL_ROW_4_31
*1239 TAP_TAPCELL_ROW_4_30
*1240 TAP_TAPCELL_ROW_3_29
*1241 TAP_TAPCELL_ROW_3_28
*1242 TAP_TAPCELL_ROW_3_27
*1243 TAP_TAPCELL_ROW_3_26
*1244 TAP_TAPCELL_ROW_3_25
*1245 TAP_TAPCELL_ROW_3_24
*1246 TAP_TAPCELL_ROW_2_23
*1247 TAP_TAPCELL_ROW_2_22
*1248 TAP_TAPCELL_ROW_2_21
*1249 TAP_TAPCELL_ROW_2_20
*1250 TAP_TAPCELL_ROW_2_19
*1251 TAP_TAPCELL_ROW_2_18
*1252 TAP_TAPCELL_ROW_1_17
*1253 TAP_TAPCELL_ROW_1_16
*1254 TAP_TAPCELL_ROW_1_15
*1255 TAP_TAPCELL_ROW_1_14
*1256 TAP_TAPCELL_ROW_1_13
*1257 TAP_TAPCELL_ROW_1_12
*1258 TAP_TAPCELL_ROW_0_11
*1259 TAP_TAPCELL_ROW_0_10
*1260 TAP_TAPCELL_ROW_0_9
*1261 TAP_TAPCELL_ROW_0_8
*1262 TAP_TAPCELL_ROW_0_7
*1263 TAP_TAPCELL_ROW_0_6
*1264 TAP_TAPCELL_ROW_0_5
*1265 TAP_TAPCELL_ROW_0_4
*1266 TAP_TAPCELL_ROW_0_3
*1267 TAP_TAPCELL_ROW_0_2
*1268 TAP_TAPCELL_ROW_0_1
*1269 TAP_TAPCELL_ROW_0_0
*1270 _464_
*1271 _465_
*1272 _466_
*1273 _467_
*1274 _468_
*1275 _469_
*1276 _470_
*1277 _471_
*1278 _472_
*1279 _473_
*1280 _474_
*1281 _475_
*1282 _476_
*1283 _477_
*1284 _478_
*1285 _479_
*1286 _480_
*1287 _481_
*1288 _482_
*1289 _483_
*1290 _484_
*1291 _485_
*1292 _486_
*1293 _487_
*1294 _488_
*1295 _489_
*1296 _490_
*1297 _491_
*1298 _492_
*1299 _493_
*1300 _494_
*1301 _495_
*1302 _496_
*1303 _497_
*1304 _498_
*1305 _499_
*1306 _500_
*1307 _501_
*1308 _502_
*1309 _503_
*1310 _504_
*1311 _505_
*1312 _506_
*1313 _507_
*1314 _508_
*1315 _509_
*1316 _510_
*1317 _511_
*1318 _512_
*1319 _513_
*1320 _514_
*1321 _515_
*1322 _516_
*1323 _517_
*1324 _518_
*1325 _519_
*1326 _520_
*1327 _521_
*1328 _522_
*1329 _523_
*1330 _524_
*1331 _525_
*1332 _526_
*1333 _527_
*1334 _528_
*1335 _529_
*1336 _530_
*1337 _531_
*1338 _532_
*1339 _533_
*1340 _534_
*1341 _535_
*1342 _536_
*1343 _537_
*1344 _538_
*1345 _539_
*1346 _540_
*1347 _541_
*1348 _542_
*1349 _543_
*1350 _544_
*1351 _545_
*1352 _546_
*1353 _547_
*1354 _548_
*1355 _549_
*1356 _550_
*1357 _551_
*1358 _552_
*1359 _553_
*1360 _554_
*1361 _555_
*1362 _556_
*1363 _557_
*1364 _558_
*1365 _559_
*1366 _560_
*1367 _561_
*1368 _562_
*1369 _563_
*1370 _564_
*1371 _565_
*1372 _566_
*1373 _567_
*1374 _568_
*1375 _569_
*1376 _570_
*1377 _571_
*1378 _572_
*1379 _573_
*1380 _574_
*1381 _575_
*1382 _576_
*1383 _577_
*1384 _578_
*1385 _579_
*1386 _580_
*1387 _581_
*1388 _582_
*1389 _583_
*1390 _584_
*1391 _585_
*1392 _586_
*1393 _587_
*1394 _588_
*1395 _589_
*1396 _590_
*1397 _591_
*1398 _592_
*1399 _593_
*1400 _594_
*1401 _595_
*1402 _596_
*1403 _597_
*1404 _598_
*1405 _599_
*1406 _600_
*1407 _601_
*1408 _602_
*1409 _603_
*1410 _604_
*1411 _605_
*1412 _606_
*1413 _607_
*1414 _608_
*1415 _609_
*1416 _610_
*1417 _611_
*1418 _612_
*1419 _613_
*1420 _614_
*1421 _615_
*1422 _616_
*1423 _617_
*1424 _618_
*1425 _619_
*1426 _620_
*1427 _621_
*1428 _622_
*1429 _623_
*1430 _624_
*1431 _625_
*1432 _626_
*1433 _627_
*1434 _628_
*1435 _629_
*1436 _630_
*1437 _631_
*1438 _632_
*1439 _633_
*1440 _634_
*1441 _635_
*1442 _636_
*1443 _637_
*1444 _638_
*1445 _639_
*1446 _640_
*1447 _641_
*1448 _642_
*1449 _643_
*1450 _644_
*1451 _645_
*1452 _646_
*1453 _647_
*1454 _648_
*1455 _649_
*1456 _650_
*1457 _651_
*1458 _652_
*1459 _653_
*1460 _654_
*1461 _655_
*1462 debug\.debug_reg_1\[0\]\$_DFFE_PP0P_
*1463 debug\.debug_reg_1\[10\]\$_DFFE_PP0P_
*1464 debug\.debug_reg_1\[11\]\$_DFFE_PP0P_
*1465 debug\.debug_reg_1\[12\]\$_DFFE_PP0P_
*1466 debug\.debug_reg_1\[13\]\$_DFFE_PP0P_
*1467 debug\.debug_reg_1\[14\]\$_DFFE_PP0P_
*1468 debug\.debug_reg_1\[15\]\$_DFFE_PP0P_
*1469 debug\.debug_reg_1\[16\]\$_DFFE_PP0P_
*1470 debug\.debug_reg_1\[17\]\$_DFFE_PP0P_
*1471 debug\.debug_reg_1\[18\]\$_DFFE_PP0P_
*1472 debug\.debug_reg_1\[19\]\$_DFFE_PP0P_
*1473 debug\.debug_reg_1\[1\]\$_DFFE_PP0P_
*1474 debug\.debug_reg_1\[20\]\$_DFFE_PP0P_
*1475 debug\.debug_reg_1\[21\]\$_DFFE_PP0P_
*1476 debug\.debug_reg_1\[22\]\$_DFFE_PP0P_
*1477 debug\.debug_reg_1\[23\]\$_DFFE_PP0P_
*1478 debug\.debug_reg_1\[24\]\$_DFFE_PP0P_
*1479 debug\.debug_reg_1\[25\]\$_DFFE_PP0P_
*1480 debug\.debug_reg_1\[26\]\$_DFFE_PP0P_
*1481 debug\.debug_reg_1\[27\]\$_DFFE_PP0P_
*1482 debug\.debug_reg_1\[28\]\$_DFFE_PP0P_
*1483 debug\.debug_reg_1\[29\]\$_DFFE_PP0P_
*1484 debug\.debug_reg_1\[2\]\$_DFFE_PP0P_
*1485 debug\.debug_reg_1\[30\]\$_DFFE_PP0P_
*1486 debug\.debug_reg_1\[31\]\$_DFFE_PP0P_
*1487 debug\.debug_reg_1\[3\]\$_DFFE_PP0P_
*1488 debug\.debug_reg_1\[4\]\$_DFFE_PP0P_
*1489 debug\.debug_reg_1\[5\]\$_DFFE_PP0P_
*1490 debug\.debug_reg_1\[6\]\$_DFFE_PP0P_
*1491 debug\.debug_reg_1\[7\]\$_DFFE_PP0P_
*1492 debug\.debug_reg_1\[8\]\$_DFFE_PP0P_
*1493 debug\.debug_reg_1\[9\]\$_DFFE_PP0P_
*1494 debug\.debug_reg_2\[0\]\$_DFFE_PP0P_
*1495 debug\.debug_reg_2\[10\]\$_DFFE_PP0P_
*1496 debug\.debug_reg_2\[11\]\$_DFFE_PP0P_
*1497 debug\.debug_reg_2\[12\]\$_DFFE_PP0P_
*1498 debug\.debug_reg_2\[13\]\$_DFFE_PP0P_
*1499 debug\.debug_reg_2\[14\]\$_DFFE_PP0P_
*1500 debug\.debug_reg_2\[15\]\$_DFFE_PP0P_
*1501 debug\.debug_reg_2\[16\]\$_DFFE_PP0P_
*1502 debug\.debug_reg_2\[17\]\$_DFFE_PP0P_
*1503 debug\.debug_reg_2\[18\]\$_DFFE_PP0P_
*1504 debug\.debug_reg_2\[19\]\$_DFFE_PP0P_
*1505 debug\.debug_reg_2\[1\]\$_DFFE_PP0P_
*1506 debug\.debug_reg_2\[20\]\$_DFFE_PP0P_
*1507 debug\.debug_reg_2\[21\]\$_DFFE_PP0P_
*1508 debug\.debug_reg_2\[22\]\$_DFFE_PP0P_
*1509 debug\.debug_reg_2\[23\]\$_DFFE_PP0P_
*1510 debug\.debug_reg_2\[24\]\$_DFFE_PP0P_
*1511 debug\.debug_reg_2\[25\]\$_DFFE_PP0P_
*1512 debug\.debug_reg_2\[26\]\$_DFFE_PP0P_
*1513 debug\.debug_reg_2\[27\]\$_DFFE_PP0P_
*1514 debug\.debug_reg_2\[28\]\$_DFFE_PP0P_
*1515 debug\.debug_reg_2\[29\]\$_DFFE_PP0P_
*1516 debug\.debug_reg_2\[2\]\$_DFFE_PP0P_
*1517 debug\.debug_reg_2\[30\]\$_DFFE_PP0P_
*1518 debug\.debug_reg_2\[31\]\$_DFFE_PP0P_
*1519 debug\.debug_reg_2\[3\]\$_DFFE_PP0P_
*1520 debug\.debug_reg_2\[4\]\$_DFFE_PP0P_
*1521 debug\.debug_reg_2\[5\]\$_DFFE_PP0P_
*1522 debug\.debug_reg_2\[6\]\$_DFFE_PP0P_
*1523 debug\.debug_reg_2\[7\]\$_DFFE_PP0P_
*1524 debug\.debug_reg_2\[8\]\$_DFFE_PP0P_
*1525 debug\.debug_reg_2\[9\]\$_DFFE_PP0P_
*1526 debug\.wbs_ack_o\$_DFF_PP0_
*1527 debug\.wbs_dat_o\[0\]\$_DFFE_PP0N_
*1528 debug\.wbs_dat_o\[10\]\$_DFFE_PP0N_
*1529 debug\.wbs_dat_o\[11\]\$_DFFE_PP0N_
*1530 debug\.wbs_dat_o\[12\]\$_DFFE_PP0N_
*1531 debug\.wbs_dat_o\[13\]\$_DFFE_PP0N_
*1532 debug\.wbs_dat_o\[14\]\$_DFFE_PP0N_
*1533 debug\.wbs_dat_o\[15\]\$_DFFE_PP0N_
*1534 debug\.wbs_dat_o\[16\]\$_DFFE_PP0N_
*1535 debug\.wbs_dat_o\[17\]\$_DFFE_PP0N_
*1536 debug\.wbs_dat_o\[18\]\$_DFFE_PP0N_
*1537 debug\.wbs_dat_o\[19\]\$_DFFE_PP0N_
*1538 debug\.wbs_dat_o\[1\]\$_DFFE_PP0N_
*1539 debug\.wbs_dat_o\[20\]\$_DFFE_PP0N_
*1540 debug\.wbs_dat_o\[21\]\$_DFFE_PP0N_
*1541 debug\.wbs_dat_o\[22\]\$_DFFE_PP0N_
*1542 debug\.wbs_dat_o\[23\]\$_DFFE_PP0N_
*1543 debug\.wbs_dat_o\[24\]\$_DFFE_PP0N_
*1544 debug\.wbs_dat_o\[25\]\$_DFFE_PP0N_
*1545 debug\.wbs_dat_o\[26\]\$_DFFE_PP0N_
*1546 debug\.wbs_dat_o\[27\]\$_DFFE_PP0N_
*1547 debug\.wbs_dat_o\[28\]\$_DFFE_PP0N_
*1548 debug\.wbs_dat_o\[29\]\$_DFFE_PP0N_
*1549 debug\.wbs_dat_o\[2\]\$_DFFE_PP0N_
*1550 debug\.wbs_dat_o\[30\]\$_DFFE_PP0N_
*1551 debug\.wbs_dat_o\[31\]\$_DFFE_PP0N_
*1552 debug\.wbs_dat_o\[3\]\$_DFFE_PP0N_
*1553 debug\.wbs_dat_o\[4\]\$_DFFE_PP0N_
*1554 debug\.wbs_dat_o\[5\]\$_DFFE_PP0N_
*1555 debug\.wbs_dat_o\[6\]\$_DFFE_PP0N_
*1556 debug\.wbs_dat_o\[7\]\$_DFFE_PP0N_
*1557 debug\.wbs_dat_o\[8\]\$_DFFE_PP0N_
*1558 debug\.wbs_dat_o\[9\]\$_DFFE_PP0N_
*1559 _257__1
*1560 _258__2
*1561 _259__3
*1562 _260__4
*1563 _261__5
*1564 _262__6
*1565 _263__7
*1566 _264__8
*1567 _265__9
*1568 _266__10
*1569 _267__11
*1570 _268__12
*1571 _269__13
*1572 _270__14
*1573 _271__15
*1574 _272__16
*1575 _273__17
*1576 _274__18
*1577 _275__19
*1578 _276__20
*1579 _277__21
*1580 _278__22
*1581 _279__23
*1582 _280__24
*1583 _281__25
*1584 _282__26
*1585 _283__27
*1586 _284__28
*1587 _285__29
*1588 _286__30
*1589 _287__31
*1590 _288__32
*1591 _289__33
*1592 _290__34
*1593 _291__35
*1594 _292__36
*1595 _293__37
*1596 _294__38
*1597 _333__39
*1598 _334__40
*1599 _335__41
*1600 _336__42
*1601 _337__43
*1602 _338__44
*1603 _339__45
*1604 _340__46
*1605 _341__47
*1606 _342__48
*1607 _343__49
*1608 _344__50
*1609 _345__51
*1610 _346__52
*1611 _347__53
*1612 _348__54
*1613 _349__55
*1614 _350__56
*1615 _351__57
*1616 _352__58
*1617 _353__59
*1618 _354__60
*1619 _355__61
*1620 _356__62
*1621 _357__63
*1622 _358__64
*1623 _359__65
*1624 _360__66
*1625 _361__67
*1626 _362__68
*1627 _363__69
*1628 _364__70
*1629 _365__71
*1630 _366__72
*1631 _367__73
*1632 _368__74
*1633 _369__75
*1634 _370__76
*1635 _371__77
*1636 _372__78
*1637 _373__79
*1638 _374__80
*1639 _375__81
*1640 _376__82
*1641 _377__83
*1642 _378__84
*1643 _379__85
*1644 _380__86
*1645 _381__87
*1646 _382__88
*1647 _383__89
*1648 _384__90
*1649 _385__91
*1650 _386__92
*1651 _387__93
*1652 _388__94
*1653 _389__95
*1654 _390__96
*1655 _391__97
*1656 _392__98
*1657 _393__99
*1658 _394__100
*1659 _395__101
*1660 _396__102
*1661 _397__103
*1662 _398__104
*1663 _399__105
*1664 _400__106
*1665 _401__107
*1666 _402__108
*1667 _403__109
*1668 _404__110
*1669 _405__111
*1670 _406__112
*1671 _407__113
*1672 _408__114
*1673 _409__115
*1674 _410__116